


PGF90 (Version     10.5)          09/23/2010  09:49:12      page 1

Switches: -noasm -nodclchk -nodebug -nodlines -noline -list
          -idir /usr/local/include
          -idir ../../../lib
          -idir ../../../lib/oce
          -idir /usr/local/include
          -idir /usr/include/mpich2-x86_64
          -idir /usr/include/mpich2-x86_64
          -inform severe -opt 3 -nosave -object -noonetrip
          -depchk on -nostandard     
          -nosymbol -noupcase    

Filename: flxmod.F90

(    1) MODULE flxmod
(    2)    !!======================================================================
(    3)    !!                       ***  MODULE  flxmod  ***
(    4)    !! Ocean forcing:  thermohaline forcing of the ocean
(    5)    !!=====================================================================
(    6)    !! * Modules used
(    7)    USE oce             ! ocean dynamics and tracers
(    8)    USE dom_oce         ! ocean space and time domain
(    9)    USE phycst          ! physical constants
(   10)    USE in_out_manager  ! I/O manager
(   11)    USE lib_mpp         ! distribued memory computing library
(   12)    USE lbclnk          ! ocean lateral boundary conditions (or mpp link)
(   13)    USE daymod          ! calendar
(   14)    USE ocfzpt          ! ocean freezing point
(   15) 
(   16)    IMPLICIT NONE
(   17)    PRIVATE
(   18) 
(   19)    !! * Routine accessibility
(   20)    PUBLIC flx       ! routine called by step.F90
(   21)    PUBLIC flx_init  ! routine called by opa.F90
(   22) 
(   23)    !! * local declarations
(   24)    REAL(wp), PUBLIC ::            & !!! surface fluxes namelist (namflx)
(   25)       q0    = 0.e0,               &  ! net heat flux
(   26)       qsr0  = 0.e0,               &  ! solar heat flux
(   27)       emp0  = 0.e0,               &  ! net freshwater flux
(   28)       dqdt0 = -40.,               &  ! coefficient for SST damping (W/m2/K)
(   29)       deds0 = 27.7                   ! coefficient for SSS damping (mm/day)
(   30)    
(   31)    !! * Substitutions
(   32) #  include "domzgr_substitute.h90"
(   33)    !!----------------------------------------------------------------------
(   34)    !!   OPA 9.0 , LOCEAN-IPSL (2005) 
(   35)    !! $Header: /home/opalod/NEMOCVSROOT/NEMO/OPA_SRC/SBC/flxmod.F90,v 1.4 2006/04/19 14:43:16 opalod Exp $ 
(   36)    !! This software is governed by the CeCILL licence see modipsl/doc/NEMO_CeCILL.txt 
(   37)    !!----------------------------------------------------------------------
(   38) 
(   39) #if defined key_flx_bulk_monthly
(   40)    !!----------------------------------------------------------------------
(   41)    !!   'key_flx_bulk_monthly'   and                           MONTHLY bulk
(   42)    !!   Default option                                         Net CDF file
(   43)    !!----------------------------------------------------------------------
(   44) #  include "flx_bulk_monthly.h90"
(   45) 
(   46) #elif defined key_flx_bulk_daily






PGF90 (Version     10.5)          09/23/2010  09:49:12      page 2

(   47)    !!----------------------------------------------------------------------
(   48)    !!   'key_flx_bulk_daily'                                     DAILY bulk
(   49)    !!                                                          Net CDF file
(   50)    !!----------------------------------------------------------------------
(   51) 
(   52) !!DB 2008.06.27:
(   53) # if defined key_flx_bulk_cmc
(   54)    !!----------------------------------------------------------------------
(   55)    !!   'key_flx_bulk_cmc'                                     CMC bulk
(   56)    !!                                                          Net CDF file
(   57)    !!----------------------------------------------------------------------
(   58) #  include "flx_bulk_cmc.h90"        
(   59) !!DB 2009.08.06
(   60) #elif defined key_CORE_NY || defined key_CORE_ANNUAL
(   61) !! CORE Normal year forcing or 1958 ... 2006 forcing
(   62) !! DB modified flx_core.h90, using DB prepared SOPA12 files
(   63) #  include "db_flx_core.h90"
(   64) # else
(   65) #  include "flx_bulk_daily.h90"
(   66) # endif
(   67) 
(   68) #elif defined key_flx_forced_daily
(   69)    !!----------------------------------------------------------------------
(   70)    !!   'key_flx_forced_daily'                                 DAILY fluxes
(   71)    !!                                                          Net CDF file
(   72)    !!----------------------------------------------------------------------
(   73) #  include "flx_forced_daily.h90"
(   74) 
(   75) #elif defined key_flx_forced_monthly 
(   76) !byoung
(   77) #   include "flx_forced_monthly.h90"
(   78) 
(   79) #elif defined key_coupled
(   80) # if defined key_ice_lim
(   81)    !!----------------------------------------------------------------------
(   82)    !!   'key_coupled'  and                          Coupled Ocan/Atmosphere
(   83)    !!   'key_ice_lim'                               with  LIM sea-ice model
(   84)    !!----------------------------------------------------------------------
(   85) #  include "flx_coupled_ice.h90"
(   86) 
(   87) # else
(   88)    !!----------------------------------------------------------------------
(   89)    !!   'key_flx_coupled'  and                      Coupled Ocan/Atmosphere
(   90)    !!   Default option                              without   sea-ice model
(   91)    !!----------------------------------------------------------------------
(   92) #  include "flx_coupled_noice.h90"
(   93) 
(   94) # endif
(   95) #else
(   96)    !!----------------------------------------------------------------------
(   97)    !!   Default option                                   Analytical forcing
(   98)    !!----------------------------------------------------------------------
(   99)    !!   flx          : define the thermohaline fluxes for the ocean
(  100)    !!----------------------------------------------------------------------
(  101)    !! * Module used
(  102)    !!----------------------------------------------------------------------
(  103) 
(  104) CONTAINS






PGF90 (Version     10.5)          09/23/2010  09:49:12      page 3

(  105) 
(  106)    SUBROUTINE flx ( kt )
(  107)       !!---------------------------------------------------------------------
(  108)       !!                    ***  ROUTINE flx  ***
(  109)       !!              
(  110)       !! ** Purpose :   provide the thermohaline fluxes (heat and freshwater)
(  111)       !!      to the ocean at each time step.
(  112)       !!
(  113)       !! ** Method  :   Constant surface fluxes (read in namelist (namflx))
(  114)       !!
(  115)       !! ** Action  : - q, qt, qsr, emp, emps, qrp, erp
(  116)       !!
(  117)       !! History :
(  118)       !!        !  91-03  ()  Original code
(  119)       !!   8.5  !  02-09  (G. Madec)  F90: Free form and module
(  120)       !!----------------------------------------------------------------------
(  121)       !! * arguments
(  122)       INTEGER, INTENT( in  ) ::   kt   ! ocean time step
(  123)       !!---------------------------------------------------------------------
(  124) 
(  125)       IF( kt == nit000 )  THEN
(  126)          IF(lwp) WRITE(numout,*)' '
(  127)          IF(lwp) WRITE(numout,*)'flx     : Analytical/Constant surface fluxes'
(  128)          IF(lwp) WRITE(numout,*)'~~~~~~~ '
(  129)          IF(lwp) WRITE(numout,*)'          See the routine oce_sbc'     
(  130)          IF(lwp) WRITE(numout,*)' '
(  131)       ENDIF
(  132) 
(  133)    END SUBROUTINE flx
(  134) 
(  135) #endif
(  136) 
(  137) 
(  138)    SUBROUTINE flx_init
(  139)       !!---------------------------------------------------------------------
(  140)       !!                    ***  ROUTINE flx  ***
(  141)       !!              
(  142)       !! ** Purpose :   provide the thermohaline fluxes (heat and freshwater)
(  143)       !!      to the ocean at each time step.
(  144)       !!
(  145)       !! ** Method  :   Constant surface fluxes (read in namelist (namflx))
(  146)       !!
(  147)       !! ** Action  : - q, qt, qsr, emp, emps, qrp, erp
(  148)       !!
(  149)       !! History :
(  150)       !!        !  91-03  ()  Original code
(  151)       !!   8.5  !  02-09  (G. Madec)  F90: Free form and module
(  152)       !!----------------------------------------------------------------------
(  153)       NAMELIST/namflx/ q0, qsr0, emp0, dqdt0, deds0
(  154)       !!---------------------------------------------------------------------
(  155) 
(  156)       ! Read Namelist namflx : surface thermohaline fluxes
(  157)       ! --------------------
(  158)       REWIND ( numnam )
(  159)       READ   ( numnam, namflx )
(  160) 
(  161)       IF(lwp) THEN
(  162)          WRITE(numout,*)' '






PGF90 (Version     10.5)          09/23/2010  09:49:12      page 4

(  163)          WRITE(numout,*)'flx_init : thermohaline forcing '
(  164)          WRITE(numout,*)'~~~~~~~~ '
(  165)          WRITE(numout,*)'           net heat flux                  q0   = ', q0  , ' W/m2'
(  166)          WRITE(numout,*)'           solar heat flux                qsr0 = ', qsr0, ' W/m2'
(  167)          WRITE(numout,*)'           net heat flux                  emp0 = ', emp0, ' W/m2'
(  168)          WRITE(numout,*)'           coefficient for SST damping   dqdt0 = ', dqdt0,' W/m2/K'
(  169)          WRITE(numout,*)'           coefficient for SSS damping   deds0 = ', deds0,' mm/day'
(  170)       ENDIF
(  171) 
(  172)    END SUBROUTINE flx_init
(  173) 
(  174) END MODULE flxmod




















































PGF90 (Version     10.5)          09/23/2010  09:49:12      page 5

(    1) # 1 "flxmod.F90"
(    1) MODULE flxmod
(    2)    !!======================================================================
(    3)    !!                       ***  MODULE  flxmod  ***
(    4)    !! Ocean forcing:  thermohaline forcing of the ocean
(    5)    !!=====================================================================
(    6)    !! * Modules used
(    7)    USE oce             ! ocean dynamics and tracers
(    8)    USE dom_oce         ! ocean space and time domain
(    9)    USE phycst          ! physical constants
(   10)    USE in_out_manager  ! I/O manager
(   11)    USE lib_mpp         ! distribued memory computing library
(   12)    USE lbclnk          ! ocean lateral boundary conditions (or mpp link)
(   13)    USE daymod          ! calendar
(   14)    USE ocfzpt          ! ocean freezing point
(   15) 
(   16)    IMPLICIT NONE
(   17)    PRIVATE
(   18) 
(   19)    !! * Routine accessibility
(   20)    PUBLIC flx       ! routine called by step.F90
(   21)    PUBLIC flx_init  ! routine called by opa.F90
(   22) 
(   23)    !! * local declarations
(   24)    REAL(wp), PUBLIC ::            & !!! surface fluxes namelist (namflx)
(   25)       q0    = 0.e0,               &  ! net heat flux
(   26)       qsr0  = 0.e0,               &  ! solar heat flux
(   27)       emp0  = 0.e0,               &  ! net freshwater flux
(   28)       dqdt0 = -40.,               &  ! coefficient for SST damping (W/m2/K)
(   29)       deds0 = 27.7                   ! coefficient for SSS damping (mm/day)
(   30)    
(   31)    !! * Substitutions
(   32) # 1 "./domzgr_substitute.h90"
(    1)    !!----------------------------------------------------------------------
(    2)    !!                    ***  domzgr_substitute.h90   ***
(    3)    !!----------------------------------------------------------------------
(    4)    !! ** purpose :   substitute fsdep. and fse.., the vert. depth and scale
(    5)    !!      factors depending on the vertical coord. used, using CPP macro.
(    6)    !!----------------------------------------------------------------------
(    7)    !!----------------------------------------------------------------------
(    8)    !!  OPA 9.0 , LOCEAN-IPSL (2005) 
(    9)    !! $Header: /home/opalod/NEMOCVSROOT/NEMO/OPA_SRC/DOM/domzgr_substitute.h90,v 1.2 2005/03/27 18:34:57 opalod Exp $ 
(   10)    !! This software is governed by the CeCILL licence see modipsl/doc/NEMO_CeCILL.txt 
(   11)    !!----------------------------------------------------------------------
(   12) # 46
(   46)    !! z-coord:  substitution  fsdep.(,,) ==>  gdep()
(   47)    !!                         fse3.(,,)  ==>  e3.()
(   48) # 33 "flxmod.F90"
(   33) # 33
(   33)    !!----------------------------------------------------------------------
(   34)    !!   OPA 9.0 , LOCEAN-IPSL (2005) 
(   35)    !! $Header: /home/opalod/NEMOCVSROOT/NEMO/OPA_SRC/SBC/flxmod.F90,v 1.4 2006/04/19 14:43:16 opalod Exp $ 
(   36)    !! This software is governed by the CeCILL licence see modipsl/doc/NEMO_CeCILL.txt 
(   37)    !!----------------------------------------------------------------------
(   38) 
(   39) # 47
(   47)    !!----------------------------------------------------------------------
(   48)    !!   'key_flx_bulk_daily'                                     DAILY bulk






PGF90 (Version     10.5)          09/23/2010  09:49:12      page 6

(   49)    !!                                                          Net CDF file
(   50)    !!----------------------------------------------------------------------
(   51) 
(   52) !!DB 2008.06.27:
(   53) # 61
(   61) !! CORE Normal year forcing or 1958 ... 2006 forcing
(   62) !! DB modified flx_core.h90, using DB prepared SOPA12 files
(   63) # 1 "./db_flx_core.h90"
(    1) !!DB 2009.05.05
(    2) 
(    3)    !!----------------------------------------------------------------------
(    4)    !!                    ***  flx_core.h90  ***
(    5)    !!----------------------------------------------------------------------
(    6)    !!   flx     : update surface thermohaline fluxes from the NCAR data set
(    7)    !!             read in a NetCDF file
(    8)    !!----------------------------------------------------------------------
(    9)    !! * Modules used     C A U T I O N  already defined in flxmod.F90
(   10) 
(   11)    !! * Shared module variables
(   12)    REAL(wp), PUBLIC, DIMENSION(jpi,jpj) ::  &
(   13)       gsss,            &  !: SSS mean on nfbulk ocean time step
(   14)       gu  , gv ,       &  !: (un,vn)(jk=1) mean over nfbulk ocean time step
(   15)       !                   ! these variables are used for output in diawri
(   16)       qlw_oce  ,       &  !: long wave flx over ocean
(   17)       qla_oce  ,       &  !: latent heat flx over ocean
(   18)       qsb_oce  ,       &  !: sensible heat flx over ocean
(   19)       qlw_ice  ,       &  !: long wave flx over ice
(   20)       qsb_ice             !: sensible heat flx over ice
(   21) 
(   22)    !! * Module variables
(   23)    INTEGER, PARAMETER ::   jpfile  = 8  ! maximum number of files to read 
(   24)    CHARACTER (LEN=32), DIMENSION (jpfile) ::  clvarname  
(   25)    CHARACTER (LEN=50), DIMENSION (jpfile) ::  clname 
(   26) 
(   27)    INTEGER   ::      isnap
(   28)    INTEGER, DIMENSION(jpfile) ::   &
(   29)       numflxall,           &  ! logical units for surface fluxes data
(   30)       nrecflx  , nrecflx2     ! first and second record to be read in flux file
(   31)    REAL(wp), DIMENSION(jpfile) ::   &
(   32)       freqh                 ! Frequency for each forcing file (hours)
(   33)       !                     ! a negative value of -12 corresponds to monthly
(   34)    REAL(wp), DIMENSION(jpi,jpj,jpfile,2) ::   &
(   35)       flxdta                !:  set of NCAR 6hourly/daily/monthly fluxes
(   36) 
(   37) !!DB -- deleted this option
(   38) 
(   39) !!DB -- keep for now
(   40)    LOGICAL  :: &
(   41)         &   ln_2m   = .FALSE.     !: logical flag for height of air temp. and hum.
(   42) 
(   43)    REAL(wp) :: alpha_precip=1.    !: multiplication factor for precipitation
(   44) 
(   45) 
(   46) !!DB -- related to I/O
(   47)    INTEGER :: bflx1, bflx2, num_recsd, ireadd, frame_daily
(   48)    INTEGER :: nyear0
(   49) 
(   50)    !!----------------------------------------------------------------------






PGF90 (Version     10.5)          09/23/2010  09:49:12      page 7

(   51)    !! History :
(   52)    !!   9.0  !  04-08  (U. Schweckendiek)  Original code
(   53)    !!        !  05-04  (L. Brodeau, A.M. Treguier)  severals modifications:
(   54)    !!        !         - new bulk routine for efficiency
(   55)    !!        !         - WINDS ARE NOW ASSUMED TO BE AT T POINTS in input files
(   56)    !!        !         - file names and file characteristics in namelist 
(   57)    !!        !         - Implement reading of 6-hourly fields   
(   58)    !!        !  06-02  (S. Masson, G. Madec)  IOM read + NEMO "style"
(   59)    !!        !  12-06  (L. Brodeau) handle both 2m and 10m input fields
(   60)    !!----------------------------------------------------------------------
(   61)    !!   OPA 9.0 , LOCEAN-IPSL (2006)
(   62)    !! $Header: /home/opalod/NEMOCVSROOT/NEMO/OPA_SRC/SBC/flx_core.h90,v 1.4 2007/05/30 08:32:50 opalod Exp $
(   63)    !! Software governed by the CeCILL licence (modipsl/doc/NEMO_CeCILL.txt)
(   64)    !!----------------------------------------------------------------------
(   65)    !
(   66) CONTAINS
(   67)    !
(   68)    SUBROUTINE flx( kt )
(   69)       !!---------------------------------------------------------------------
(   70)       !!                     ***  ROUTINE flx  ***
(   71)       !!                   
(   72)       !! ** Purpose :   provide the thermohaline fluxes (heat and freshwater)
(   73)       !!                and momentum fluxes (tau) 
(   74)       !!      to the ocean at each time step.
(   75)       !!
(   76)       !! ** Method  :   Read NCAR data in a NetCDF file
(   77)       !!               (file names and frequency of inputs specified in namelist)
(   78)       !!          precipitation:  total (rain+snow)
(   79)       !!          precipitation:  snow only 
(   80)       !!          u10,v10 -> scalar wind at 10m in m/s -  ON 'T' GRID POINTS!!!
(   81)       !!          solar radiation (short wave)  in W/m2
(   82)       !!          thermal radiation (long wave) in W/m2
(   83)       !!          specific humidity             in %
(   84)       !!          temperature at 10m            in degrees K
(   85)       !!
(   86)       !!  ** Action  :   
(   87)       !!          call flx_blk_albedo to compute ocean and ice albedo
(   88)       !!          Calculates forcing fluxes to input into ice model 
(   89)       !          or to be used directly for the ocean in ocesbc. 
(   90)       !!
(   91)       !!  ** Outputs 
(   92)       !!          COMMENTS TO BE ADDED -units to be verified!
(   93)       !!          taux    : zonal      wind stress on "u" points  (N/m2)
(   94)       !!          tauy    : meridional wind stress on "v" points  (N/m2)
(   95)       !!          qsr_oce : Solar flux over the ocean (W/m2)
(   96)       !!          qnsr_oce: longwave flux over the ocean (W/m2)
(   97)       !!          qsr_ice : solar flux over the ice (W/m2)
(   98)       !!          qnsr_ice: longwave flux over the ice (W/m2)
(   99)       !!          qla_ice : latent flux over sea-ice (W/m2)
(  100)       !!          dqns_ice: total heat fluxes sensitivity over ice (dQ/dT)
(  101)       !!          dqla_ice: latent heat flux sensitivity over ice (dQla/dT)
(  102)       !!          fr1_i0
(  103)       !!          fr2_i0
(  104)       !!          tprecip
(  105)       !!          sprecip
(  106)       !!          evap
(  107)       !!          
(  108)       !! caution : now, in the opa global model, the net upward water flux is






PGF90 (Version     10.5)          09/23/2010  09:49:12      page 8

(  109)       !! -------   with mm/day unit,i.e. Kg/m2/s.
(  110)       !!---------------------------------------------------------------------
(  111)       !! * modules used
(  112) !!DB
(  113) !      USE iom
(  114) !      USE restart         
(  115) !! Will need (some of) these later
(  116) !!DB
(  117)       USE oce, only :  perpetual_forcing, ramp
(  118)       USE lib_ncdf
(  119) 
(  120) !
(  121)       USE par_oce
(  122)       USE flx_oce
(  123)       USE blk_oce         ! bulk variable
(  124)       USE taumod
(  125)       USE bulk
(  126)       USE phycst
(  127)       USE lbclnk
(  128)       USE dtatem          ! FOR Ce = F(SST(levitus)):
(  129)       USE daymod 
(  130) 
(  131) !!DB: -- in case no ice model
(  132) # 133
(  133) ! FD add for wind relative to ice velocity
(  134)       USE ice, only    : u_ice , v_ice ! : ice velocity
(  135) 
(  136) # 137
(  137)       !! * arguments
(  138)       INTEGER, INTENT( in  ) ::   kt   ! ocean time step
(  139) 
(  140) !!DB -- will change
(  141)       !! * Local declarations      
(  142) 
(  143) # 155
(  155)       CHARACTER(len=45)  ::  &
(  156)          clname_1 = 'core_t10_1d.nc',        &
(  157)          clname_2 = 'core_precip_1d.nc',   &
(  158)          clname_3 = 'core_q10_1d.nc',        &
(  159)          clname_4 = 'core_u10_v10_1d.nc',        &
(  160)          clname_5 = 'core_SWLW_1d.nc'
(  161) 
(  162)       LOGICAL ::  &
(  163)          is_cyclical = .true.
(  164) 
(  165) # 166
(  166)       REAL(wp) :: zxy, update_frac, rdt_in  !!NB: not used
(  167)       INTEGER :: i, j,  status, ipi, ipj, idy, ndt, rec1, rec2
(  168) 
(  169) 
(  170)       !! * Local declarations
(  171)       INTEGER ::   &
(  172)          jj   , ji                     !  Loop indices 
(  173)       REAL(wp) ::   &
(  174)          zcof , zzu , zzv              ! scalar 
(  175)       REAL(wp), DIMENSION(jpi,jpj, jpfile) ::   &
(  176)          flxnow             ! input flux values at current time step 
(  177)       REAL(wp), DIMENSION(jpi,jpj) ::   &






PGF90 (Version     10.5)          09/23/2010  09:49:12      page 9

(  178)          dqlw_ice ,      &  ! long wave heat flx sensitivity over ice
(  179)          dqsb_ice ,      &  ! sensible heat flx sensitivity over ice
(  180)          alb_oce_os,     &  ! albedo of the ocean under overcast sky
(  181)          alb_ice_os,     &  ! albedo of the ice under overcast sky
(  182)          alb_ice_cs,     &  ! albedo of ice under clear sky
(  183)          alb_oce_cs,     &  ! albedo of the ocean under clear sky
(  184)          zsst,           &  ! nfbulk : mean SST
(  185)          zsss,           &  ! nfbulk : mean tn_ice(:,:,1)
(  186)          zut,            &  ! nfbulk : mean U at T-point
(  187)          zvt,            &  ! nfbulk : mean V at T-point
(  188)          dUnormt,        &  ! scalar wind (norm) on T points
(  189) ! FD modifications from JM Molines
(  190)          tauxtwo, tauytwo,   &  ! wind stress on ocean computed at T-point
(  191)          tauxtwi, tauytwi,   &  ! wind stress on ice computed at T-point
(  192) ! FD different Unormt for ice from Steven Alderson
(  193)          Unormt,         &  ! scalar wind (norm) on T points
(  194)          zus,            &  ! nfbulk : mean u_ice at T-point
(  195)          zvs,            &  ! nfbulk : mean v_ice at T-point
(  196) ! FD end 
(  197)          tauxt, tauyt,   &  ! wind stress computed at T-point
(  198)          qsatw,          &  ! specific humidity at zSST
(  199)          qsat,           &  ! specific humidity at zsss 
(  200)          Ch,             &  ! coefficient for sensible heat flux
(  201)          Ce,             &  ! coefficient for latent heat flux
(  202)          Cd,             &  ! coefficient for wind stress
(  203)          zt_zu,          &  !: air temperature at wind speed height
(  204)          zq_zu              !: air spec. hum.  at wind speed height
(  205)       REAL(wp), PARAMETER ::   &
(  206)          rhoa  = 1.22,    &  ! air density
(  207)          cp    = 1000.5,  &  ! specific heat of air
(  208)          Lv    = 2.5e6,   &  ! latent heat of vaporization
(  209)          Ls    = 2.839e6, &  ! latent heat of sublimation
(  210)          Stef  = 5.67e-8, &  ! Stefan Boltzmann constant
(  211)          Cice = 1.63e-3      ! transfert coefficient over ice
(  212)       REAL(wp), DIMENSION(jpi,jpj) ::   &
(  213)          catm1               ! 
(  214) 
(  215)       !!---------------------------------------------------------------------
(  216) 
(  217) 
(  218) !!DB: adapt flx_bulk_daily routine here
(  219) !!NB: I do not do time-interpolation yet, just input a new frame every day
(  220) !!DB: 
(  221) 
(  222) 
(  223)       rdt_in = rday/rdt    !# of timesteps between input records (float)
(  224)       ndt = int(rday/rdt)  !int version (REM: daily input routine)
(  225)       idy = 365
(  226)       IF(nleapy == 1) idy = 366
(  227) 
(  228) 
(  229) 
(  230)                   
(  231) 
(  232) 
(  233) 
(  234)       !! =============================================== !!
(  235)       !!   PART A:   READING FLUX FILES WHEN NECESSARY   !!






PGF90 (Version     10.5)          09/23/2010  09:49:12      page 10

(  236)       !! =============================================== !!
(  237) 
(  238)       !                                         ! ------------------------ !
(  239)       IF( kt == nit000 ) THEN                   !   first call kt=nit000   !
(  240) 
(  241)          !--- Initializes default values of file names, frequency of forcings 
(  242)          !    and variable to be read in the files, before reading namelist 
(  243) !         clname(1) = 'precip.nc'   ; freqh(1) = -12 ; clvarname(1) = 'precip'     ! monthly
(  244) !         clname(2) = 'u10.nc'      ; freqh(2) =   6 ; clvarname(2) = 'u10'        ! 6 hourly          
(  245) !         clname(3) = 'v10.nc'      ; freqh(3) =   6 ; clvarname(3) = 'v10'        ! 6 hourly    
(  246) !         clname(4) = 'q10.nc'      ; freqh(4) =   6 ; clvarname(4) = 'q10'        ! 6 hourly   
(  247) !         clname(5) = 'radsw.nc'    ; freqh(5) =  24 ; clvarname(5) = 'radsw'      ! daily 
(  248) !         clname(6) = 'radlw.nc'    ; freqh(6) =  24 ; clvarname(6) = 'radlw'      ! daily 
(  249) !         clname(7) = 't10.nc'      ; freqh(7) =   6 ; clvarname(7) = 't10'        ! 6 hourly 
(  250) !         clname(8) = 'snow.nc'     ; freqh(8) = -12 ; clvarname(8) = 'snow'       ! monthly
(  251) 
(  252)          IF(lwp) THEN
(  253)             WRITE(numout2,*)' '
(  254)             WRITE(numout2,*)' DB flx_core : global CORE fields in NetCDF format'
(  255)             WRITE(numout2,*)' ~~~~~~~~~~ '
(  256)             WRITE(numout2,*) 'DB: #-dt between inputs  rdt_in        = ', rdt_in
(  257)             WRITE(numout2,*) 'DB: is_cyclical            = ', is_cyclical
(  258)             WRITE(numout2,*) '           ln_2m        = ', ln_2m
(  259)             WRITE(numout2,*) '           alpha_precip = ', alpha_precip
(  260) !            WRITE(numout2,*) '           list of files and frequency (hour), or monthly (-12) '
(  261)          ENDIF
(  262) 
(  263)          !--- Initialization to zero
(  264)          qsr_oce (:,:) = 0.e0
(  265)          qsb_oce (:,:) = 0.e0
(  266)          qla_oce (:,:) = 0.e0
(  267)          qlw_oce (:,:) = 0.e0
(  268)          qnsr_oce(:,:) = 0.e0
(  269)          qsr_ice (:,:) = 0.e0
(  270)          qnsr_ice(:,:) = 0.e0
(  271)          qla_ice (:,:) = 0.e0
(  272)          qlw_ice (:,:) = 0.e0
(  273)          qsb_ice (:,:) = 0.e0
(  274) 
(  275)          dqns_ice(:,:) = 0.e0
(  276)          dqla_ice(:,:) = 0.e0
(  277)          tprecip (:,:) = 0.e0
(  278)          sprecip (:,:) = 0.e0
(  279)          evap    (:,:) = 0.e0
(  280) 
(  281)          flxnow  (:,:,:) = 1.e-15         !RB
(  282)          flxdta  (:,:,:,:) = 1.e-15       !RB
(  283) 
(  284) 
(  285) 
(  286) 
(  287)          if(is_cyclical) then
(  288) !DB  frame_daily is the offset into the files. 
(  289)             frame_daily = nday_year     
(  290)          else
(  291) !AD:            frame_daily = 1               ! for non-cyclical daily forcing
(  292) !AD:  non-cyclical should start on nday_year in ndate0
(  293)             frame_daily = nday_year     






PGF90 (Version     10.5)          09/23/2010  09:49:12      page 11

(  294) !AD:  insert nyear
(  295) 	    write(clname_1(18:21),'(I4.4)') nyear
(  296) 	    write(clname_2(21:24),'(I4.4)') nyear
(  297) 	    write(clname_3(18:21),'(I4.4)') nyear
(  298) 	    write(clname_4(22:25),'(I4.4)') nyear
(  299) 	    write(clname_5(19:22),'(I4.4)') nyear  
(  300)             nyear0=nyear	                          
(  301)          endif
(  302) 
(  303) !!DB -- crucial assignments
(  304)          call ncdf_get_dim_size(clname_1, 'time_counter',num_recsd,status)
(  305)          if(status == 0) then
(  306)             if(lwp) write(numout2,*)'db_flx_core: # records in ',clname_1, ' = ', num_recsd
(  307)          else
(  308)             if(lwp) write(numout2,*)'DBG: prob with ncdf_get_dim_size ====> STOP'
(  309)             stop
(  310)          endif
(  311)          if(num_recsd /= idy) then
(  312)             if(lwp) then
(  313)                write(numout2,*)'DBG -- db_flx_core: # records /= ', idy, ' Could be an error'
(  314)             endif
(  315)          endif
(  316)          call ncdf_get_dim_size(clname_1, 'x', ipi, status)
(  317)          call ncdf_get_dim_size(clname_1, 'y', ipj, status)
(  318)          if( ipi /= jpidta .OR. ipj /= jpjdta) then
(  319)             if(lwp) then
(  320)                write(numout2,*)
(  321)                write(numout2,*) 'problem with file ', clname_1
(  322)                write(numout2,*) 'problem with dimensions'
(  323)                write(numout2,*) ' ipi ',ipi,' jpidta ',jpidta
(  324)                write(numout2,*) ' ipj ',ipj,' jpjdta ',jpjdta
(  325)             endif
(  326)             stop 'db_flx_core'
(  327)          endif
(  328) 
(  329) 
(  330)          bflx1 =  0 + (frame_daily-1)  !!NB: to get 1st record correct, see below
(  331)          if(bflx1 .gt. num_recsd) bflx1 = num_recsd