


PGF90 (Version     10.5)          09/23/2010  09:49:41      page 1

Switches: -noasm -nodclchk -nodebug -nodlines -noline -list
          -idir /usr/local/include
          -idir ../../../lib
          -idir ../../../lib/oce
          -idir /usr/local/include
          -idir /usr/include/mpich2-x86_64
          -idir /usr/include/mpich2-x86_64
          -inform severe -opt 3 -nosave -object -noonetrip
          -depchk on -nostandard     
          -nosymbol -noupcase    

Filename: lib_feti.F90

(    1) MODULE lib_feti
(    2)    !!==============================================================================
(    3)    !!                       ***  MODULE lib_feti   ***
(    4)    !! Ocean solver : FETI library
(    5)    !!==============================================================================
(    6) 
(    7)    !!----------------------------------------------------------------------
(    8)    !!  OPA 9.0 , LOCEAN-IPSL (2005) 
(    9)    !! $Header: /home/opalod/NEMOCVSROOT/NEMO/OPA_SRC/lib_feti.F90,v 1.2 2005/03/27 18:34:47 opalod Exp $ 
(   10)    !! This software is governed by the CeCILL licence see modipsl/doc/NEMO_CeCILL.txt 
(   11)    !!----------------------------------------------------------------------
(   12) #if defined key_feti
(   13)    !!  feti_creadr
(   14)    !!  feti_prext
(   15)    !!  feti_init
(   16)    !!  feti_iclr
(   17)    !!  feti_vclr
(   18)    !!  feti_vmov
(   19)    !!  feti_vneg    (used in lib_feti)
(   20)    !!  feti_vsub
(   21)    !!  feti_vadd    (used in lib_feti)
(   22)    !!  feti_ldlt    (used in lib_feti)
(   23)    !!  feti_desremo (used in lib_feti)
(   24)    !!  feti_mxv     (used in lib_feti)
(   25)    !!  feti_mxvadd  (used in lib_feti)
(   26)    !!  feti_saut    (used in lib_feti)
(   27)    !!  feti_moyen   (used in lib_feti)
(   28)    !!  feti_assemb  (used in lib_feti)
(   29)    !!  feti_poids
(   30)    !!  feti_probit  (used in lib_feti)
(   31)    !!  feti_inisub
(   32)    !!  feti_subound
(   33)    !!  feti_subdir
(   34)    !!  feti_listdir
(   35)    !!  feti_blodir
(   36)    !!  feti_numblo
(   37)    !!  feti_blomat
(   38)    !!  feti_blomat1
(   39)    !!  feti_nullsp
(   40)    !!  feti_project (used in lib_feti)
(   41)    !!  feti_etesolv (used in lib_feti)
(   42)    !!  feti_osaxpy  (used in lib_feti) 
(   43)    !!  feti_proe    (used in lib_feti)
(   44)    !!  feti_proet   (used in lib_feti)
(   45)    !!  feti_consrhs (used in lib_feti)
(   46)    !!  feti_dualschur






PGF90 (Version     10.5)          09/23/2010  09:49:41      page 2

(   47)    !!  feti_extend  (used in lib_feti)
(   48)    !!  feti_restri  (used in lib_feti)
(   49)    !!  feti_halfint
(   50)    !!  feti_front
(   51)    !!  feti_calinv  (used in lib_feti)
(   52)    !!  feti_nbdia   (used in lib_feti)
(   53)    !!  feti_liblod  (used in lib_feti)
(   54)    !!  feti_liblos  (used in lib_feti)
(   55)    !!  feti_resloc
(   56)    !!  feti_pblos   (used in lib_feti)
(   57)    !!  feti_pbloi   (used in lib_feti) 
(   58)    !!  feti_proax
(   59)    !!
(   60)    !!  EXTERNAL used (BLAS): sgemv, strsv, saxpy, irecv
(   61)    !!
(   62)    !! References :
(   63)    !!      Guyon, M, Roux, F-X, Chartier, M and Fraunie, P, 1994 :
(   64)    !!      A domain decomposition solver to compute the barotropic 
(   65)    !!      component of an OGCM in the parallel processing field.
(   66)    !!      Ocean Modelling, issue 105, december 94.
(   67)    !!
(   68)    !! Modifications :
(   69)    !!      original :  98-02 (M. Guyon)
(   70)    !!------------------------------------------------------------------------
(   71)    !! * Modules used
(   72)    USE lib_mpp                 ! distribued memory computing
(   73) 
(   74) CONTAINS
(   75) 
(   76)       subroutine feti_creadr(ial,ialmax,lmax,ltab,iatab,chtab)
(   77) !  ial = derniere adresse libre dans le super-tableau de longueur lmax .
(   78) !  ltab = taille de la structure de donnee tab , d'adresse iatab .
(   79)       implicit none
(   80)       external mynode
(   81) 
(   82)       integer ial,ialmax,lmax,ltab,iatab
(   83)       integer iialmax,iibidon,mynode
(   84)       character(len=12) chtab
(   85) 
(   86)       iatab=ial
(   87)       ial=iatab+ltab
(   88)       ialmax=max0(ial,ialmax)
(   89)       if(ial > lmax) then 
(   90)           write(0,*)'  creation de la structure de donnee ',chtab
(   91)           write(0,*)'  depassement taille super-tableau :'
(   92)           write(0,*)'  taille maximale , taille demandee :',lmax,ial
(   93)           stop
(   94)       endif
(   95) 
(   96) !... test de la memoire
(   97) 
(   98)       iialmax=-ialmax
(   99)       call mpp_min(iialmax,1,iibidon)
(  100)       iialmax=-iialmax
(  101) !     if(mynode() == 0)then
(  102) !         write(0,*)'  creation de la structure de donnee ',chtab
(  103) !         write(0,*)'taille max vaut : ',iialmax
(  104) !     endif






PGF90 (Version     10.5)          09/23/2010  09:49:41      page 3

(  105) 
(  106)       end subroutine feti_creadr
(  107) !***********************************************************************
(  108)       subroutine feti_prext(n,x)
(  109)       implicit none
(  110)       integer n
(  111)       REAL(kind=8)  x(n)
(  112)       REAL(kind=8)   xmin,xmax
(  113)       integer i
(  114) 
(  115)       xmin=x(1)
(  116)       xmax=x(1)
(  117)       do i=2,n
(  118)         xmin=min(xmin,x(i))
(  119)         xmax=max(xmax,x(i))
(  120)       end do
(  121) !     write(0,100)xmin,xmax
(  122)  100  format(8d10.3)
(  123) 
(  124)       end subroutine feti_prext
(  125) !*********************************************************************
(  126)       subroutine feti_init(noeuds,x)
(  127)       implicit none
(  128)       integer noeuds
(  129)       REAL(kind=8)  x(noeuds)
(  130)       integer ji
(  131) 
(  132)       do ji=1,noeuds
(  133)         x(ji)=1.
(  134)       end do
(  135) 
(  136)       end subroutine feti_init
(  137) !***********************************************************************
(  138)       subroutine feti_iclr(n,x)
(  139)       implicit none
(  140)       integer n
(  141)       integer x(n)
(  142)       integer i
(  143) 
(  144)       do i=1,n
(  145)         x(i)=0
(  146)       end do
(  147) 
(  148)       end subroutine feti_iclr
(  149) !***********************************************************************
(  150)       subroutine feti_vclr(n,x)
(  151)       implicit none
(  152)       integer n
(  153)       REAL(kind=8)  x(n)
(  154)       integer i
(  155) 
(  156)       do i=1,n
(  157)         x(i)=0.e0
(  158)       end do
(  159) 
(  160)       return
(  161)       end
(  162) !***********************************************************************






PGF90 (Version     10.5)          09/23/2010  09:49:41      page 4

(  163)       subroutine feti_vmov(n,x,y)
(  164)       implicit none
(  165)       integer n
(  166)       REAL(kind=8)  x(n),y(n)
(  167)       integer i
(  168)       do i=1,n
(  169)         y(i)=x(i)
(  170)       end do
(  171)       return
(  172)       end
(  173) !***********************************************************************
(  174)       subroutine feti_vneg(n,x,y)
(  175)       implicit none
(  176)       integer n
(  177)       REAL(kind=8)  x(n),y(n)
(  178)       integer i
(  179) 
(  180)       do i=1,n
(  181)         y(i)=-x(i)
(  182)       end do
(  183) 
(  184)       return
(  185)       end
(  186) !***********************************************************************
(  187)       subroutine feti_vsub(n,x,y,z)
(  188)       implicit none
(  189)       integer n
(  190)       REAL(kind=8)  x(n),y(n),z(n)
(  191)       integer i
(  192)       do i=1,n
(  193)         z(i)=x(i)-y(i)
(  194)       end do
(  195)       return
(  196)       end
(  197) !***********************************************************************
(  198)       subroutine feti_vadd(n,x,y,z)
(  199)       implicit none
(  200)       integer n
(  201)       REAL(kind=8)  x(n),y(n),z(n)
(  202)       integer i
(  203) 
(  204)       do i=1,n
(  205)         z(i)=y(i)+x(i)
(  206)       end do
(  207) 
(  208)       return
(  209)       end
(  210) !***********************************************************************
(  211)       subroutine feti_ldlt(n,a,d,v,ndlblo,lisblo,nmdlblo,j0)
(  212) 
(  213) !...ndlblo nombre de liberte bloques = nombre de pivots nuls = dim(Ker(Ep))
(  214) 
(  215) !...nmdlblo = Max (ndlblo(Ep)) <= superstructure management in f77 context
(  216) !            p=1,Np
(  217) 
(  218)       implicit none
(  219)       integer n,ndlblo,nmdlblo
(  220)       integer j0






PGF90 (Version     10.5)          09/23/2010  09:49:41      page 5

(  221)       REAL(kind=8)  a(n,n),v(n),d(n)
(  222)       integer lisblo(nmdlblo)
(  223)       integer i,j,k
(  224)       REAL(kind=8)  piv,epsilo
(  225) 
(  226) !  pivot de reference .
(  227)       piv=a(1,1)
(  228) !  epsilon .
(  229)       epsilo=1.e-10
(  230) !  factorisation de Crout d'une matrice pleine .
(  231)       do j = 1 , n
(  232) !  calcul du produit de la ligne numero j par la diagonale .
(  233)         do k = 1 , j - 1
(  234)           v(k) = a(j,k) * a(k,k)
(  235)         end do
(  236) !  calcul des termes de la partie inferieure de la colonne .
(  237)         call sgemv('N',n-j+1,j-1,-1.e0,a(j,1),n,v,1,1.e0,a(j,j),1)
(  238) !  detection des pivots nuls .
(  239)         if(a(j,j) < (piv*epsilo)) then
(  240)             ndlblo=ndlblo+1
(  241)             lisblo(ndlblo)=j0+j
(  242)             do i=1,j-1
(  243)               a(i,j)=0.e0
(  244)             end do
(  245)             do i=j+1,n
(  246)               a(j,i)=0.e0
(  247)             end do
(  248)             a(j,j)=0.e0
(  249)             d(j)=0.e0
(  250)         else
(  251)             piv=a(j,j)
(  252)             d(j)=1.e0/a(j,j)
(  253)             do i = j+1 , n
(  254)               a(i,j) = a(i,j) * d(j)
(  255)             end do
(  256)         endif
(  257)       end do
(  258) !  recopie de la partie triangulaire superieure .
(  259)       do i = 1, n
(  260)         do j = i+1, n
(  261)           a(i,j)=a(j,i)
(  262)         end do
(  263)       end do
(  264)       do i=1,n
(  265)         a(i,i)=d(i)
(  266)       end do
(  267) 
(  268)       return
(  269)       end
(  270) !**********************************************************************c
(  271)       subroutine feti_desremo(n,j0,a,y,x) 
(  272)       implicit none
(  273)       integer n,i,j,j0
(  274)       REAL(kind=8)  a(n,n),x(n),y(n)
(  275) 
(  276) !  descente remontee du systeme .
(  277) !  initialisation du vecteur resultat .
(  278)       do i=1,n






PGF90 (Version     10.5)          09/23/2010  09:49:41      page 6

(  279)         x(i)=y(i)
(  280)       end do
(  281) !  descente du systeme L x = x , L est a diagonale unitaire .
(  282)       call strsv('L','N','U',n-j0,a(j0+1,j0+1),n,x(j0+1),1)
(  283) !  division par la diagonale .
(  284)       do j=j0+1,n
(  285)         x(j)=x(j)*a(j,j)
(  286)       end do          
(  287) !  remontee du systeme U x = x , U est a diagonale unitaire . 
(  288)       call strsv('U','N','U',n-j0,a(j0+1,j0+1),n,x(j0+1),1)
(  289) 
(  290)       return
(  291)       end
(  292) !***********************************************************************
(  293)       subroutine feti_mxv(n,m,a,x,y) 
(  294) !  calcul du produit matrice-vecteur :  y = A x
(  295)       implicit none
(  296)       integer n,m
(  297)       REAL(kind=8)  a(n,m),x(m),y(n)
(  298)       REAL(kind=8)  alpha,beta
(  299) !  initialisation du vecteur y .
(  300)       alpha=1.e0
(  301)       beta=0.e0
(  302)       call sgemv('N',n,m,alpha,a,n,x,1,beta,y,1)
(  303)       return
(  304)       end
(  305) !**********************************************************************c
(  306)       subroutine feti_mxvadd(n,m,a,x,y) 
(  307) !  calcul du produit matrice-vecteur :  y = y + A x
(  308)       implicit none
(  309)       integer n,m
(  310)       REAL(kind=8)  a(n,m),x(m),y(n)
(  311)       REAL(kind=8)  alpha,beta
(  312) !  initialisation du vecteur y .
(  313) 
(  314)       alpha=1.e0
(  315)       beta=1.e0
(  316)       if((n > 0).and.(m > 0))then
(  317)           call sgemv('N',n,m,alpha,a,n,x,1,beta,y,1)
(  318)       endif
(  319) 
(  320)       return
(  321)       end
(  322) !**********************************************************************c
(  323)       subroutine feti_saut(numnes,listnes,    &
(  324)           plistin,numins,listin,              &
(  325)                 numnos,v,w,bufin,bufout)
(  326) !!        narea,numnos,v,w,bufin,bufout)
(  327) 
(  328) !  computation of the jump of a field on the interfaces, in the case 
(  329) !  where subdomain number i is allocated to processor number i-1 .
(  330) 
(  331) !     INPUTS : numnes  =  number of neighbouring subdomains
(  332) !               listnes =  list of neighbouring subdomains
(  333) !               lint    =  list of inner interfaces
(  334) !               lext    =  list of extern interfaces
(  335) !               plistin =  pointer of sublists of interface nodes
(  336) !               numins  =  number of interface nodes






PGF90 (Version     10.5)          09/23/2010  09:49:41      page 7

(  337) !               listin  =  list of interface nodes
(  338) !               narea     =  subdomain number
(  339) !               numnos  =  number of nodes in the subdomain
(  340) !               v       =  local field
(  341) 
(  342) !     OUTPUTS : w  =  jump of v
(  343) 
(  344) !     WORKSPACE : bufin   =  contributions of local field on interface
(  345) !                 bufout  =  contributions of outer fields on interface
(  346) !                 work
(  347)       implicit none 
(  348) !      external irecv
(  349) !!    integer irecv, work(100)
(  350) !!    integer numnes,numins,numnos,narea
(  351)       integer numnes,numins,numnos
(  352)       integer listnes(numnes,3), plistin(numnes+1), listin(numins)
(  353)       REAL(kind=8)  v(numnos),w(numins)
(  354)       REAL(kind=8)  bufin(numins),bufout(numins)
(  355)       integer i,j,l
(  356)       integer mesg
(  357) 
(  358)       mesg=128
(  359) !  receiving the values of the outer fields on the interface
(  360) !     do i=1,numnes
(  361) !       l=(plistin(i+1)-plistin(i))*8
(  362) !       work(i)=irecv(mesg+listnes(i)-1,bufout(plistin(i)+1),l)
(  363) !     end do
(  364) !  gathering the values of the local field on the interface
(  365)       do i=1,numnes
(  366)         do j=plistin(i)+1,plistin(i+1)
(  367)           bufin(j)=v(listin(j))
(  368)         end do
(  369)       end do
(  370) !  sending the values of the local field on the interface
(  371)       do i=1,numnes
(  372)         l=(plistin(i+1)-plistin(i))*8
(  373) !       call mppsend(mesg+narea-1,bufin(plistin(i)+1),l,listnes(i)-1,0)
(  374)         call mppsend(mesg+listnes(i,3)-1,bufin(plistin(i)+1),l,   &
(  375)             listnes(i,1)-1,0)
(  376)       end do
(  377) !  computing the jump on each interface 
(  378)       do i=1,numnes
(  379) !       call msgwait(work(i))
(  380)         l=(plistin(i+1)-plistin(i))*8
(  381) !       call mpprecv(mesg+listnes(i)-1,bufout(plistin(i)+1),l)
(  382)         call mpprecv(mesg+listnes(i,2)-1,bufout(plistin(i)+1),l)
(  383)       end do
(  384)       do j=1,numins
(  385)         w(j)=bufin(j)-bufout(j)
(  386)       end do
(  387) 
(  388)       return
(  389)       end
(  390) !**********************************************************************c
(  391)       subroutine feti_moyen(numnes,listnes,   &
(  392)           plistin,numins,listin,              &
(  393)           narea,numnos,weight,v,w,bufin,bufout)
(  394) 






PGF90 (Version     10.5)          09/23/2010  09:49:41      page 8

(  395) !  averaging a field on the interfaces, in the case where subdomain
(  396) !  number i is allocated to processor number i-1 .
(  397) 
(  398) !     INPUTS : numnes  =  number of neighbouring subdomains
(  399) !               listnes =  list of neighbouring subdomains
(  400) !               lint    =  list of inner interfaces
(  401) !               lext    =  list of extern interfaces
(  402) !               plistin =  pointer of sublists of interface nodes
(  403) !               numins  =  number of interface nodes
(  404) !               listin  =  list of interface nodes
(  405) !               narea    =  subdomain number
(  406) !               numnos  =  number of nodes in the subdomain
(  407) !               weight  =  weighting vector
(  408) !               v       =  local field
(  409) 
(  410) !     OUTPUTS :      w  =  averaged field
(  411) 
(  412) !     WORKSPACE : bufin   =  contributions of local field on interface
(  413) !                 bufout  =  contributions of outer fields on interface
(  414) !                 work
(  415)       implicit none 
(  416) !     external irecv
(  417) !!    integer irecv, work(100)
(  418)       integer numnes,numins,numnos,narea
(  419)       integer listnes(numnes,3), plistin(numnes+1), listin(numins)
(  420)       REAL(kind=8)  weight(numnos),v(numnos),w(numnos)
(  421)       REAL(kind=8)  bufin(numins),bufout(numins)
(  422)       integer i,j,l,n
(  423)       integer mesg
(  424) 
(  425)       mesg=128*2
(  426) !  initialization
(  427)       call feti_vmov(numnos,v,w)
(  428) !  receiving the values of the outer fields on the interface
(  429) !     do i=1,numnes
(  430) !       l=(plistin(i+1)-plistin(i))*8
(  431) !       work(i)=irecv(mesg+listnes(i)-1,bufout(plistin(i)+1),l)
(  432) !     end do
(  433) !  gathering the values of the local field on the interface
(  434)       do i=1,numnes
(  435)         do j=plistin(i)+1,plistin(i+1)
(  436)           bufin(j)=v(listin(j))
(  437)         end do
(  438)       end do
(  439) !  sending the values of the local field on the interface
(  440)       do i=1,numnes
(  441)         l=(plistin(i+1)-plistin(i))*8
(  442) !       call mppsend(mesg+narea-1,bufin(plistin(i)+1),l,listnes(i)-1,0)
(  443)         call mppsend(mesg+listnes(i,3)-1,bufin(plistin(i)+1),l,   &
(  444)             listnes(i,1)-1,0)
(  445)       end do
(  446) !  computing the jump on each interface 
(  447)       do i=1,numnes
(  448) !       call msgwait(work(i))
(  449)         l=(plistin(i+1)-plistin(i))*8
(  450) !       call mpprecv(mesg+listnes(i)-1,bufout(plistin(i)+1),l)
(  451)         call mpprecv(mesg+listnes(i,2)-1,bufout(plistin(i)+1),l)
(  452)       end do






PGF90 (Version     10.5)          09/23/2010  09:49:41      page 9

(  453)       do j=1,numins
(  454)         n=listin(j)
(  455)         w(n)=w(n)+bufout(j)
(  456)       end do
(  457)       do n=1,numnos
(  458)         w(n)=w(n)*weight(n)
(  459)       end do
(  460) 
(  461)       return
(  462)       end
(  463) !**********************************************************************c
(  464)       subroutine feti_assemb(numnes,listnes,   &
(  465)           plistin,numins,listin,               &
(  466)           narea,numnos,v,w,bufin,bufout)
(  467) 
(  468) !  assembling a field on the interfaces, in the case where subdomain
(  469) !  number i is allocated to processor number i-1 .
(  470) 
(  471) !     INPUTS :      numnes  =  number of neighbouring subdomains
(  472) !               listnes =  list of neighbouring subdomains
(  473) !               lint    =  list of inner interfaces
(  474) !               lext    =  list of extern interfaces
(  475) !               plistin =  pointer of sublists of interface nodes
(  476) !               numins  =  number of interface nodes
(  477) !               listin  =  list of interface nodes
(  478) !               narea     =  subdomain number
(  479) !               numnos  =  number of nodes in the subdomain
(  480) !               v       =  unassembled field
(  481) 
(  482) !     OUTPUTS :      w  =  assembled field
(  483) 
(  484) !     WORKSPACE : bufin   =  contributions of local field on interface
(  485) !                 bufout  =  contributions of outer fields on interface
(  486) !                 work
(  487)       implicit none 
(  488) !      external irecv
(  489) !!    integer irecv, work(100)
(  490)       integer numnes,numins,numnos,narea
(  491)       integer listnes(numnes,3), plistin(numnes+1), listin(numins)
(  492)       REAL(kind=8)  v(numnos),w(numnos)
(  493)       REAL(kind=8)  bufin(numins),bufout(numins)
(  494)       integer i,j,l,n
(  495)       integer mesg
(  496) 
(  497)       mesg=128*3
(  498) !  initialization
(  499)       call feti_vmov(numnos,v,w)
(  500) !  receiving the values of the outer fields on the interface
(  501) !     do i=1,numnes
(  502) !       l=(plistin(i+1)-plistin(i))*8
(  503) !       work(i)=irecv(mesg+listnes(i)-1,bufout(plistin(i)+1),l)
(  504) !     end do
(  505) !  gathering the values of the local field on the interface
(  506)       do i=1,numnes
(  507)         do j=plistin(i)+1,plistin(i+1)
(  508)           bufin(j)=v(listin(j))
(  509)         end do
(  510)       end do






PGF90 (Version     10.5)          09/23/2010  09:49:41      page 10

(  511) !  sending the values of the local field on the interface
(  512)       do i=1,numnes
(  513)         l=(plistin(i+1)-plistin(i))*8
(  514) !       write(90,*)'envoie a ',listnes(i),'de ',l,'octets'
(  515) !       write(90,*)'tag est : ',listnes(i,3)
(  516) !       call mppsend(mesg+narea-1,bufin(plistin(i)+1),l,listnes(i)-1,0)
(  517)         call mppsend(mesg+listnes(i,3)-1,bufin(plistin(i)+1),l,   &
(  518)             listnes(i,1)-1,0)
(  519)       end do
(  520) !  computing the jump on each interface 
(  521)       do i=1,numnes
(  522) !       call msgwait(work(i))
(  523)         l=(plistin(i+1)-plistin(i))*8
(  524) !       write(90,*)'recoie de ',listnes(i),'de ',l,'octets'
(  525) !       write(90,*)'recois avec tag :',listnes(i,2)
(  526) !       call mpprecv(mesg+listnes(i)-1,bufout(plistin(i)+1),l)
(  527)         call mpprecv(mesg+listnes(i,2)-1,bufout(plistin(i)+1),l)
(  528)       end do
(  529)       do j=1,numins
(  530)         n=listin(j)
(  531)         w(n)=w(n)+bufout(j)
(  532)       end do
(  533) 
(  534)       return
(  535)       end
(  536) !**********************************************************************c
(  537) !!    subroutine feti_poids(numnes,listnes,plistin,numins,listin,   &
(  538) !!        narea,numnos,w,bufin,bufout)
(  539)       subroutine feti_poids(numnes,                numins,listin,   &
(  540)                 numnos,w             )
(  541) 
(  542) !  computation of the subdomain weighting vector, in the case where 
(  543) !  subdomain number i is allocated to processor number i-1 .
(  544) 
(  545) !     INPUTS :      numnes  =  number of neighbouring subdomains
(  546) !               listnes =  list of neighbouring subdomains
(  547) !               plistin =  pointer of sublists of interface nodes
(  548) !               numins  =  number of interface nodes
(  549) !               listin  =  list of interface nodes
(  550) !               narea     =  subdomain number
(  551) !               numnos  =  number of nodes in the subdomain
(  552) 
(  553) !     OUTPUTS :      w  =  weighting vector
(  554) 
(  555) !     WORKSPACE : bufin   =  contributions of local field on interface
(  556) !                 bufout  =  contributions of outer fields on interface
(  557) !                 work
(  558)       implicit none 
(  559) !!    integer numnes,numins,numnos,narea
(  560)       integer numnes,numins,numnos
(  561) !!    integer listnes(numnes), plistin(numnes+1), listin(numins)
(  562)       integer                                     listin(numins)
(  563)       REAL(kind=8)  w(numnos)
(  564) !!    REAL(kind=8)  bufin(numins),bufout(numins)
(  565)       integer j,n
(  566) 
(  567) !  initialization
(  568)       do n=1,numnos






PGF90 (Version     10.5)          09/23/2010  09:49:41      page 11

(  569)         w(n)=1.e0
(  570)       end do
(  571) !  computing the weight on each interface 
(  572)       do j=1,numins
(  573)         n=listin(j)
(  574)         w(n)=w(n)+1.e0
(  575)       end do
(  576)       do n=1,numnos
(  577)         w(n)=1.e0/w(n)
(  578)       end do
(  579) 
(  580)       return
(  581)       end
(  582) !**********************************************************************c
(  583)       subroutine feti_probit(numnes,listnes,plistin,numins,listin,   &
(  584)           numnos,w,bitw)
(  585) 
(  586) !  computing the local right-hand-side associated with a field
(  587) !  on the interface .
(  588) 
(  589) !     INPUTS :      numnes  =  number of neighbouring subdomains
(  590) !               listnes =  list of neighbouring subdomains
(  591) !               plistin =  pointer of sublists of interface nodes
(  592) !               numins  =  number of interface nodes
(  593) !               listin  =  list of interface nodes
(  594) !               numnos  =  number of nodes in the subdomain
(  595) !               w       =  interface field
(  596) 
(  597) !     OUTPUTS :      bitw  =  local right-hand side
(  598) 
(  599)       implicit none 
(  600)       integer numnes,numins,numnos
(  601)       integer listnes(numnes,3), plistin(numnes+1), listin(numins)
(  602)       REAL(kind=8)  w(numins)
(  603)       REAL(kind=8)  bitw(numnos)
(  604)       integer i,j,n
(  605) 
(  606) !  initialization
(  607)       do n=1,numnos
(  608)         bitw(n)=0.e0
(  609)       end do
(  610) !  assembling the values on the interfaces 
(  611)       do i=1,numnes
(  612)         do j=plistin(i)+1,plistin(i+1)
(  613)           n=listin(j)
(  614)           bitw(n)=bitw(n)+w(j)
(  615)         end do
(  616)       end do
(  617) 
(  618)       return
(  619)       end
(  620) !**********************************************************************c
(  621)       subroutine feti_inisub(ni,nj,ibondi,ibondj,iperio,   &
(  622)           ibsw,ibnw,ibse,ibne,                             &
(  623)           ninterf,ninterfc,nni,nnic)
(  624)       implicit none
(  625)       integer ni,nj,ibondi,ibondj,iperio
(  626)       integer ibsw,ibnw,ibse,ibne






PGF90 (Version     10.5)          09/23/2010  09:49:41      page 12

(  627)       integer ibsw2,ibnw2,ibse2,ibne2
(  628)       integer ninterf,ninterfc,nni,nnic
(  629) !     integer i,j
(  630) 
(  631) !  determination de la position du sous-domaine dans la grille
(  632) !  cela depnd de ibondi et ibondj
(  633) 
(  634) !  nombre de sous-domaines voisins et de la longueur du tableau des
(  635) !  noeuds voisins
(  636) 
(  637) !  initialisation
(  638) 
(  639)       ninterf=0
(  640)       nni=0
(  641) 
(  642) !...first, the "segment-points"
(  643) 
(  644)       if((ibondi == 2).AND.(iperio /= 1))then
(  645) 
(  646) !  la periodicite : pas d'interface east / west si nbondi = 2
(  647) !  ET nperio != 1
(  648) 
(  649) !      elseif(iperio == 1) then
(  650) 
(  651) !...ca doit marcher!?
(  652) 
(  653)       else
(  654) 
(  655) !  west
(  656) 
(  657)           if(ibondi /= -1)then
(  658)               ninterf=ninterf+1
(  659)               nni=nni+nj+1
(  660)           endif
(  661) 
(  662) !  east
(  663) 
(  664)           if(ibondi /= 1)then
(  665)               ninterf=ninterf+1
(  666)               nni=nni+nj+1
(  667)           endif
(  668) 
(  669)       endif
(  670) 
(  671) !  south
(  672) 
(  673)       if(ibondj /= -1.AND.ibondj /= 2)then
(  674)           ninterf=ninterf+1
(  675)           nni=nni+ni+1
(  676)       endif
(  677) 
(  678) !  north
(  679) 
(  680)       if(ibondj /= 1.AND.ibondj /= 2)then
(  681)           ninterf=ninterf+1
(  682)           nni=nni+ni+1
(  683)       endif
(  684) 






PGF90 (Version     10.5)          09/23/2010  09:49:41      page 13

(  685)       nnic=nni
(  686)       ninterfc=ninterf
(  687) 
(  688) 
(  689) !...second, the "corner-points"
(  690) 
(  691) !...determination of the neighboorings, they depends on iperio
(  692) !   boundary condition => local description : ipXX becomes ipXX2...
(  693) 
(  694)       ibnw2 = ibnw
(  695)       ibne2 = ibne
(  696)       ibsw2 = ibsw
(  697)       ibse2 = ibse
(  698) 
(  699) !...iperio boundary condition effect
(  700) 
(  701)       if(iperio == 1) then
(  702) 
(  703) !...general case : Earth == infinite tube
(  704) 
(  705)           ibnw2 = 1
(  706)           ibne2 = 1
(  707)           ibsw2 = 1
(  708)           ibse2 = 1
(  709) 
(  710) !...real boundary condition
(  711) 
(  712)           if(ibondj == -1.OR.ibondj == 2) then
(  713)               ibsw2 = 0
(  714)               ibse2 = 0
(  715)           endif
(  716) 
(  717)           if(ibondj == 1.OR.ibondj == 2) then
(  718)               ibnw2 = 0
(  719)               ibne2 = 0
(  720)           endif
(  721) 
(  722)       endif
(  723) 
(  724) !  la periodicite : pas de coin si nbondi = 2
(  725) !  ET nperio != 1
(  726) 
(  727) !  north-west
(  728) 
(  729)       if(ibnw == 1)then
(  730)           ninterfc=ninterfc+1
(  731)           nnic=nnic+1
(  732)       endif
(  733) 
(  734) !  north-east
(  735) 
(  736)       if(ibne == 1)then
(  737)           ninterfc=ninterfc+1
(  738)           nnic=nnic+1
(  739)       endif
(  740) 
(  741) !  south-west
(  742) 






PGF90 (Version     10.5)          09/23/2010  09:49:41      page 14

(  743)       if(ibsw == 1)then
(  744)           ninterfc=ninterfc+1
(  745)           nnic=nnic+1
(  746)       endif
(  747) 
(  748) !  south-east
(  749) 
(  750)       if(ibse == 1)then
(  751)           ninterfc=ninterfc+1
(  752)           nnic=nnic+1
(  753)       endif
(  754) 
(  755) !       write(0,*)'  nbre de voisins =',ninterf
(  756) !       write(0,*)'  longueur des interfaces =',nni
(  757) !       write(0,*)'  longueur des interfaces =',nnic
(  758) 
(  759)       return