


PGF90 (Version     10.5)          09/23/2010  09:49:57      page 1

Switches: -noasm -nodclchk -nodebug -nodlines -noline -list
          -idir /usr/local/include
          -idir ../../../lib
          -idir ../../../lib/oce
          -idir /usr/local/include
          -idir /usr/include/mpich2-x86_64
          -idir /usr/include/mpich2-x86_64
          -inform severe -opt 3 -nosave -object -noonetrip
          -depchk on -nostandard     
          -nosymbol -noupcase    

Filename: limthd_zdf.F90

(    1) MODULE limthd_zdf
(    2)    !!======================================================================
(    3)    !!                       ***  MODULE limthd_zdf ***
(    4)    !!                thermodynamic growth and decay of the ice 
(    5)    !!======================================================================
(    6) #if defined key_ice_lim
(    7)    !!----------------------------------------------------------------------
(    8)    !!   'key_ice_lim'                                     LIM sea-ice model
(    9)    !!----------------------------------------------------------------------
(   10)    !!   lim_thd_zdf  : vertical accr./abl. and lateral ablation of sea ice
(   11)    !!----------------------------------------------------------------------
(   12)    !! * Modules used
(   13)    USE par_oce          ! ocean parameters
(   14)    USE phycst           ! ???
(   15)    USE ice_oce          ! ice variables
(   16)    USE thd_ice
(   17)    USE iceini
(   18)    USE limistate
(   19)    USE in_out_manager
(   20)       
(   21)    IMPLICIT NONE
(   22)    PRIVATE
(   23) 
(   24)    !! * Routine accessibility
(   25)    PUBLIC lim_thd_zdf        ! called by lim_thd
(   26) 
(   27)    !! * Module variables
(   28)    REAL(wp)  ::           &  ! constant values
(   29)       epsi20 = 1.e-20  ,  &
(   30)       epsi13 = 1.e-13  ,  &
(   31)       zzero  = 0.e0    ,  &
(   32)       zone   = 1.e0
(   33)    !!----------------------------------------------------------------------
(   34)    !!   LIM 2.0,  UCL-LOCEAN-IPSL (2005) 
(   35)    !! $Header: /home/opalod/NEMOCVSROOT/NEMO/LIM_SRC/limthd_zdf.F90,v 1.5 2005/03/27 18:34:42 opalod Exp $ 
(   36)    !! This software is governed by the CeCILL licence see modipsl/doc/NEMO_CeCILL.txt 
(   37)    !!----------------------------------------------------------------------
(   38) CONTAINS
(   39) 
(   40)    SUBROUTINE lim_thd_zdf( kideb , kiut )
(   41)       !!------------------------------------------------------------------
(   42)       !!                ***  ROUTINE lim_thd_zdf  ***
(   43)       !!              
(   44)       !! ** Purpose : This routine determines the time evolution of snow 
(   45)       !!      and sea-ice thicknesses, concentration and heat content 
(   46)       !!      due to the vertical and lateral thermodynamic accretion-






PGF90 (Version     10.5)          09/23/2010  09:49:57      page 2

(   47)       !!      ablation processes. One only treats the case of lat. abl.
(   48)       !!      For lateral accretion, see routine lim_lat_accr 
(   49)       !! 
(   50)       !! ** Method  : The representation of vertical growth and decay of 
(   51)       !!      the sea-ice model is based upon the diffusion of heat 
(   52)       !!      through the external and internal boundaries of a 
(   53)       !!      three-layer system (two layers of ice and one layer and 
(   54)       !!      one layer of snow, if present, on top of the ice).
(   55)       !! 
(   56)       !! ** Action  : - Calculation of some intermediates variables
(   57)       !!              - Calculation of surface temperature
(   58)       !!              - Calculation of available heat for surface ablation
(   59)       !!              - Calculation of the changes in internal temperature 
(   60)       !!                of the three-layer system, due to vertical diffusion 
(   61)       !!                processes
(   62)       !!              - Performs surface ablation and bottom accretion-ablation
(   63)       !!              - Performs snow-ice formation
(   64)       !!              - Performs lateral ablation
(   65)       !!
(   66)       !! References :
(   67)       !!   Fichefet T. and M. Maqueda 1997, J. Geophys. Res., 102(C6), 12609-12646   
(   68)       !!   Fichefet T. and M. Maqueda 1999, Clim. Dyn, 15(4), 251-268  
(   69)       !!
(   70)       !! History :
(   71)       !!   original    : 01-04 (LIM)
(   72)       !!   addition    : 02-08 (C. Ethe, G. Madec)
(   73)       !!------------------------------------------------------------------
(   74)       !! * Arguments
(   75)       INTEGER , INTENT (in) ::  &
(   76)          kideb ,  &  ! Start point on which the  the computation is applied
(   77)          kiut        ! End point on which the  the computation is applied
(   78) 
(   79)       !! * Local variables
(   80)       INTEGER ::   ji       ! dummy loop indices
(   81) 
(   82)       REAL(wp) , DIMENSION(jpij,2) ::  &
(   83)          zqcmlt        ! energy due to surface( /1 ) and bottom melting( /2 )
(   84) 
(   85)       REAL(wp), DIMENSION(jpij) ::  &
(   86)          ztsmlt      &    ! snow/ice surface melting temperature
(   87)          ,ztbif      &    ! int. temp. at the mid-point of the 1st layer of the snow/ice sys. 
(   88)          ,zksn       &    ! effective conductivity of snow
(   89)          ,zkic       &    ! effective conductivity of ice
(   90)          ,zksndh     &    ! thermal cond. at the mid-point of the 1st layer of the snow/ice sys. 
(   91)          , zfcsu     &    ! conductive heat flux at the surface of the snow/ice system 
(   92)          , zfcsudt   &    ! = zfcsu * dt
(   93)          , zi0       &    ! frac. of the net SW rad. which is not absorbed at the surface
(   94)          , z1mi0     &    ! fraction of the net SW radiation absorbed at the surface
(   95)          , zqmax     &    ! maximum energy stored in brine pockets
(   96)          , zrcpdt    &    ! h_su*rho_su*cp_su/dt(h_su being the thick. of surf. layer)
(   97)          , zts_old   &    ! previous surface temperature
(   98)          , zidsn , z1midsn , zidsnic ! tempory variables
(   99) 
(  100)       REAL(wp), DIMENSION(jpij) :: &
(  101)           zfnet       &  ! net heat flux at the top surface( incl. conductive heat flux)
(  102)           , zsprecip  &    ! snow accumulation
(  103)           , zhsnw_old &    ! previous snow thickness
(  104)           , zdhictop  &    ! change in ice thickness due to top surf ablation/accretion






PGF90 (Version     10.5)          09/23/2010  09:49:57      page 3

(  105)           , zdhicbot  &    ! change in ice thickness due to bottom surf abl/acc
(  106)           , zqsup     &    ! energy transmitted to ocean (coming from top surf abl/acc)
(  107)           , zqocea    &    ! energy transmitted to ocean (coming from bottom sur abl/acc)
(  108)           , zfrl_old  &    ! previous sea/ice fraction
(  109)           , zfrld_1d    &    ! new sea/ice fraction
(  110)           , zep            ! internal temperature of the 2nd layer of the snow/ice system
(  111) 
(  112)        REAL(wp), DIMENSION(3) :: & 
(  113)           zplediag  &    ! principle diagonal, subdiag. and supdiag. of the 
(  114)           , zsubdiag  &    ! tri-diagonal matrix coming from the computation
(  115)           , zsupdiag  &    ! of the temperatures inside the snow-ice system
(  116)           , zsmbr          ! second member
(  117) 
(  118)        REAL(wp) :: & 
(  119)           zhsu     &     ! thickness of surface layer
(  120)           , zhe      &     ! effective thickness for compu. of equ. thermal conductivity
(  121)           , zheshth  &     ! = zhe / thth
(  122)           , zghe     &     ! correction factor of the thermal conductivity
(  123)           , zumsb    &     ! parameter for numerical method to solve heat-diffusion eq.
(  124)           , zkhsn    &     ! conductivity at the snow layer
(  125)           , zkhic    &     ! conductivity at the ice layers
(  126)           , zkint    &     ! equivalent conductivity at the snow-ice interface
(  127)           , zkhsnint &     ! = zkint*dt / (hsn*rhosn*cpsn)  
(  128)           , zkhicint &     ! = 2*zkint*dt / (hic*rhoic*cpic)
(  129)           , zpiv1 , zpiv2  &       ! tempory scalars used to solve the tri-diagonal system
(  130)           , zb2 , zd2 , zb3 , zd3 &
(  131)           , ztint          ! equivalent temperature at the snow-ice interface
(  132) 
(  133)        REAL(wp) :: & 
(  134)           zexp      &     ! exponential function of the ice thickness
(  135)           , zfsab     &     ! part of solar radiation stored in brine pockets
(  136)           , zfts      &     ! value of energy balance function when the temp. equal surf. temp.
(  137)           , zdfts     &     ! value of derivative of ztfs when the temp. equal surf. temp.
(  138)           , zdts      &     ! surface temperature increment
(  139)           , zqsnw_mlt &     ! energy needed to melt snow
(  140)           , zdhsmlt   &     ! change in snow thickness due to melt
(  141)           , zhsn      &     ! snow thickness (previous+accumulation-melt)
(  142)           , zqsn_mlt_rem &  ! remaining heat coming from snow melting
(  143)           , zqice_top_mlt & ! energy used to melt ice at top surface
(  144)           , zdhssub      &  ! change in snow thick. due to sublimation or evaporation
(  145)           , zdhisub      &  ! change in ice thick. due to sublimation or evaporation    
(  146)           , zdhsn        &  ! snow ice thickness increment
(  147)           , zdtsn        &  ! snow internal temp. increment
(  148)           , zdtic        &  ! ice internal temp. increment
(  149)           , zqnes          ! conductive energy due to ice melting in the first ice layer
(  150) 
(  151)        REAL(wp) :: & 
(  152)           ztbot     &      ! temperature at the bottom surface
(  153)           , zfcbot    &      ! conductive heat flux at bottom surface
(  154)           , zqice_bot &      ! energy used for bottom melting/growing
(  155)           , zqice_bot_mlt &  ! energy used for bottom melting
(  156)           , zqstbif_bot  &  ! part of energy stored in brine pockets used for bottom melting
(  157)           , zqstbif_old  &  ! tempory var. for zqstbif_bot
(  158)           , zdhicmlt      &  ! change in ice thickness due to bottom melting
(  159)           , zdhicm        &  ! change in ice thickness var. 
(  160)           , zdhsnm        &  ! change in snow thickness var. 
(  161)           , zhsnfi        &  ! snow thickness var. 
(  162)           , zc1, zpc1, zc2, zpc2, zp1, zp2 & ! tempory variables






PGF90 (Version     10.5)          09/23/2010  09:49:57      page 4

(  163)           , ztb2, ztb3
(  164) 
(  165)        REAL(wp) :: & 
(  166)           zdrmh         &   ! change in snow/ice thick. after snow-ice formation
(  167)           , zhicnew       &   ! new ice thickness
(  168)           , zhsnnew       &   ! new snow thickness
(  169)           , zquot , ztneq &   ! tempory temp. variables
(  170)           , zqice, zqicetot & ! total heat inside the snow/ice system
(  171)           , zdfrl         &   ! change in ice concentration
(  172)           , zdvsnvol      &   ! change in snow volume
(  173)           , zdrfrl1, zdrfrl2 &  ! tempory scalars
(  174)           , zihsn, zidhb, zihic, zihe, zihq, ziexp, ziqf, zihnf, zibmlt, ziqr, zihgnew, zind
(  175)        !!----------------------------------------------------------------------
(  176) 
(  177)        !-----------------------------------------------------------------------
(  178)        !  1. Boundaries conditions for snow/ice system internal temperature
(  179)        !       - If tbif_1d(ji,1) > rt0_snow, tbif_1d(ji,1) = rt0_snow 
(  180)        !       - If tbif_1d(ji,2/3) > rt0_ice, tbif_1d(ji,2/3) = rt0_ice 
(  181)        !     Computation of energies due to surface and bottom melting 
(  182)        !-----------------------------------------------------------------------
(  183)        
(  184)        
(  185)        DO ji = kideb , kiut
(  186)           zihsn = MAX( zzero , SIGN( zone , hsndif - h_snow_1d(ji) ) )
(  187)           zihic = MAX( zzero , SIGN( zone , hicdif - h_ice_1d(ji) ) )
(  188)           !--computation of energy due to surface melting
(  189)           zqcmlt(ji,1) = ( MAX ( zzero ,  &
(  190)              &                   rcpsn * h_snow_1d(ji) * ( tbif_1d(ji,1) - rt0_snow ) ) ) * ( 1.0 - zihsn )
(  191)           !--computation of energy due to bottom melting
(  192)           zqcmlt(ji,2) = ( MAX( zzero , &
(  193)              &                  rcpic * ( tbif_1d(ji,2) - rt0_ice ) * ( h_ice_1d(ji) / 2. ) ) &
(  194)              &           + MAX( zzero , &
(  195)              &                  rcpic * ( tbif_1d(ji,3) - rt0_ice ) * ( h_ice_1d(ji) / 2. ) ) &
(  196)              &           ) * ( 1.0 - zihic  )
(  197)           !--limitation of  snow/ice system internal temperature
(  198)           tbif_1d(ji,1)   = MIN( rt0_snow, tbif_1d(ji,1) )
(  199)           tbif_1d(ji,2)   = MIN( rt0_ice , tbif_1d(ji,2) )
(  200)           tbif_1d(ji,3)   = MIN( rt0_ice , tbif_1d(ji,3) )
(  201)        END DO
(  202) 
(  203) 
(  204)        !-------------------------------------------
(  205)        !  2. Calculate some intermediate variables.  
(  206)        !-------------------------------------------
(  207)        
(  208)        ! initialisation of the thickness of surface layer
(  209)        zhsu = hnzst  
(  210) 
(  211)        DO ji = kideb , kiut
(  212)           zind   = MAX( zzero , SIGN( zone , zhsu - h_snow_1d(ji) ) )
(  213)           zihsn  = MAX( zzero , SIGN( zone , hsndif - h_snow_1d(ji) ) )
(  214)           zihsn  = MAX( zihsn , zind )
(  215)           zihic  = MAX( zzero , sign( zone , hicdif - h_ice_1d(ji) ) )
(  216)           !     2.1. Computation of surface melting temperature
(  217)           !----------------------------------------------------
(  218)           zind  = MAX( zzero , SIGN( zone , -h_snow_1d(ji) ) )
(  219)           ztsmlt(ji) = ( 1.0 - zind ) * rt0_snow + zind * rt0_ice
(  220)           !






PGF90 (Version     10.5)          09/23/2010  09:49:57      page 5

(  221)           !     2.2. Effective conductivity of snow and ice
(  222)           !-----------------------------------------------
(  223) 
(  224)           !---computation of the correction factor on the thermal conductivity
(  225)           !-- (Morales Maqueda, 1995 ; Fichefet and Morales Maqueda, 1997)
(  226)           zhe      =  ( rcdsn / ( rcdsn + rcdic ) ) * h_ice_1d(ji)   &
(  227)              &     + ( rcdic / ( rcdsn + rcdic ) ) * h_snow_1d(ji) 
(  228)           zihe     = MAX( zzero , SIGN( zone , 2.0 * zhe - thth ) )
(  229)           zheshth  = zhe / thth
(  230)           zghe     = ( 1.0 - zihe ) * zheshth * ( 2.0 - zheshth )   &
(  231)              &     +         zihe   * 0.5 * ( 1.5 + LOG( 2.0 * zheshth ) )
(  232) #if defined key_lim_cp3
(  233)           zghe = 1.0
(  234) #endif 
(  235) 
(  236)           !---effective conductivities 
(  237)           zksn(ji)  = zghe * rcdsn  
(  238)           zkic(ji)  = zghe * rcdic
(  239) 
(  240)           !
(  241)           !     2.3. Computation of the conductive heat flux from the snow/ice 
(  242)           !          system interior toward the top surface
(  243)           !------------------------------------------------------------------
(  244) 
(  245)           !---Thermal conductivity at the mid-point of the first snow/ice system layer
(  246)           zksndh(ji) =   ( ( 1.0 - zihsn ) * 2.0 * zksn(ji) + zihsn * 4.0 * zkic(ji) )   &
(  247)              &         / ( ( 1.0 - zihsn ) *  h_snow_1d(ji)                              &
(  248)              &           +        zihsn   *  ( ( 1.0 + 3.0 * zihic ) * h_ice_1d(ji)      &
(  249)              &           + 4.0 * zkic(ji)/zksn(ji) * h_snow_1d(ji) ) )
(  250) 
(  251)           !---internal temperature at the mid-point of the first snow/ice system layer
(  252)           ztbif(ji)  = ( 1.0 - zihsn ) * tbif_1d(ji,1)                       &
(  253)              &       +         zihsn   * ( ( 1.0 - zihic ) * tbif_1d(ji,2)   &
(  254)              &       +         zihic   * tfu_1d(ji)   )
(  255)           !---conductive heat flux 
(  256)           zfcsu(ji) = zksndh(ji) * ( ztbif(ji) - sist_1d(ji) )
(  257) 
(  258)        END DO
(  259) 
(  260)        !--------------------------------------------------------------------
(  261)        !  3. Calculate : 
(  262)        !     - fstbif_1d, part of solar radiation absorbing inside the ice
(  263)        !       assuming an exponential absorption (Grenfell and Maykut, 1977)
(  264)        !     - zqmax,  maximum energy stored in brine pockets
(  265)        !     - qstbif_1d, total energy stored in brine pockets (updating)
(  266)        !-------------------------------------------------------------------
(  267) 
(  268) 
(  269)        DO ji = kideb , kiut
(  270)           zihsn  = MAX( zzero , SIGN (zone , -h_snow_1d(ji) ) )
(  271)           zihic  = MAX( zzero , 1.0 - ( h_ice_1d(ji) / zhsu ) )     
(  272)           zind   = MAX( zzero , SIGN (zone , hicdif - h_ice_1d(ji) ) )
(  273)           !--Computation of the fraction of the net shortwave radiation which
(  274)           !--penetrates inside the ice cover ( See Forcat)
(  275)           zi0(ji)  = zihsn * ( fr1_i0_1d(ji) + zihic * fr2_i0_1d(ji) )
(  276)           zexp     = MIN( zone , EXP( -1.5 * ( h_ice_1d(ji) - zhsu ) ) )
(  277)           fstbif_1d(ji) = zi0(ji) * qsr_ice_1d(ji) * zexp
(  278)           !--Computation of maximum energy stored in brine pockets zqmax and update






PGF90 (Version     10.5)          09/23/2010  09:49:57      page 6

(  279)           !--the total energy stored in brine pockets, if less than zqmax
(  280)           zqmax(ji) = MAX( zzero , 0.5 * xlic * ( h_ice_1d(ji) - hicmin ) )
(  281)           zfsab   = zi0(ji) * qsr_ice_1d(ji) * ( 1.0 - zexp )
(  282)           zihq    = ( 1.0 - zind ) * MAX(zzero, SIGN( zone , qstbif_1d(ji) - zqmax(ji) ) ) &
(  283)              &    +         zind   * zone
(  284)           qstbif_1d(ji) = ( qstbif_1d(ji) + ( 1.0 - zihq ) * zfsab * rdt_ice ) * swiqst
(  285)           !--fraction of shortwave radiation absorbed at surface
(  286)           ziexp = zihq * zexp + ( 1.0 - zihq ) * ( swiqst + ( 1.0 - swiqst ) * zexp )
(  287)           z1mi0(ji) = 1.0 - zi0(ji) * ziexp
(  288)        END DO
(  289) 
(  290) 
(  291)        !--------------------------------------------------------------------------------
(  292)        !  4. Computation of the surface temperature : determined by considering the 
(  293)        !     budget of a thin layer of thick. zhsu at the top surface (H. Grenier, 1995) 
(  294)        !     and based on a surface energy balance : 
(  295)        !     hsu * rcp * dT/dt = Fsr + Fnsr(T) + Fcs(T),
(  296)        !     where - Fsr is the net absorbed solar radiation, 
(  297)        !           - Fnsr is the total non solar radiation (incoming and outgoing long-wave,
(  298)        !             sensible and latent heat fluxes)
(  299)        !           - Fcs the conductive heat flux at the top of surface
(  300)        !------------------------------------------------------------------------------
(  301) 
(  302)        !     4.1. Computation of intermediate values
(  303)        !---------------------------------------------
(  304)        DO ji = kideb, kiut
(  305)           zrcpdt(ji) = ( rcpsn * MIN( h_snow_1d(ji) , zhsu )    &
(  306)              &       + rcpic * MAX( zhsu - h_snow_1d(ji) , zzero ) ) / rdt_ice
(  307)           zts_old(ji) =  sist_1d(ji)
(  308)        END DO
(  309) 
(  310)        !     4.2. Computation of surface temperature by expanding the eq. of energy balance
(  311)        !          with Ts = Tp + DT. One obtain , F(Tp) + DT * DF(Tp) = 0
(  312)        !          where  - F(Tp) = Fsr + Fnsr(Tp) + Fcs(Tp) 
(  313)        !                 - DF(Tp)= (dFnsr(Tp)/dT) + (dFcs(Tp)/dT) - hsu*rcp/dt
(  314)        !---------------------------------------------------------------------------------
(  315) 
(  316)        DO ji = kideb, kiut
(  317)           !---computation of the derivative of energy balance function 
(  318) #if defined key_coupled
(  319) #   if defined key_lim_cp2
(  320)           zdfts   =   zksndh(ji)   & ! contribution of the conductive heat flux
(  321)              &      + zrcpdt(ji)   & ! contribution of hsu * rcp / dt
(  322)              &      - dqns_ice_1d(ji)      ! contribution of the total non solar radiation 
(  323) #   else
(  324)           zdfts   =   zksndh(ji)   & ! contribution of the conductive heat flux
(  325)              &      + zrcpdt(ji)    ! contribution of hsu * rcp / dt
(  326) #   endif
(  327) 
(  328) #else
(  329)           zdfts    =  zksndh(ji)   & ! contribution of the conductive heat flux
(  330)              &      + zrcpdt(ji)   & ! contribution of hsu * rcp / dt
(  331)              &      - dqns_ice_1d (ji)     ! contribution of the total non solar radiation 
(  332) #endif
(  333)           !---computation of the energy balance function 
(  334)           zfts    = - z1mi0 (ji) * qsr_ice_1d(ji)   & ! net absorbed solar radiation
(  335)              &      - qnsr_ice_1d(ji)                & ! total non solar radiation
(  336)              &      - zfcsu (ji)                  ! conductive heat flux from the surface






PGF90 (Version     10.5)          09/23/2010  09:49:57      page 7

(  337)           !---computation of surface temperature increment  
(  338)           zdts    = -zfts / zdfts
(  339) #if defined key_lim_cp3
(  340)           zdts = zdts / 3.0
(  341) #endif
(  342)           !---computation of the new surface temperature 
(  343)           sist_1d(ji) = sist_1d(ji) + zdts
(  344) 
(  345)        END DO
(  346) 
(  347)        !----------------------------------------------------------------------------
(  348)        !  5. Boundary condition at the top surface
(  349)        !--    IF Tsb < Tmelt, Fnet = Fcs (the net heat flux equal the conductive heat flux)
(  350)        !      Otherwise Tsb = Tmelt and Qnet(Tmelt) > 0 
(  351)        !      Fnet(Tmelt) is therefore the net surface flux needed for melting
(  352)        !----------------------------------------------------------------------------
(  353)        
(  354)        
(  355)        !     5.1.  Limitation of surface temperature and update total non solar fluxes,
(  356)        !          latent heat flux and conductive flux at the top surface 
(  357)        !----------------------------------------------------------------------  
(  358)                      
(  359)        DO ji = kideb, kiut
(  360)           sist_1d(ji) = MIN( ztsmlt(ji) , sist_1d(ji) )
(  361) #if ! defined key_coupled
(  362)           qnsr_ice_1d(ji) = qnsr_ice_1d(ji) + dqns_ice_1d(ji) * ( sist_1d(ji) - zts_old(ji) )
(  363)           qla_ice_1d (ji) = qla_ice_1d (ji) + dqla_ice_1d(ji) * ( sist_1d(ji) - zts_old(ji) )
(  364) #endif
(  365)           zfcsu(ji)  = zksndh(ji) * ( ztbif(ji) - sist_1d(ji) )
(  366)        END DO
(  367) 
(  368)      
(  369) 
(  370)        !     5.2. Calculate available heat for surface ablation. 
(  371)        !---------------------------------------------------------------------
(  372) 
(  373)        DO ji = kideb, kiut
(  374)           zfnet(ji) = qnsr_ice_1d(ji) + z1mi0(ji) * qsr_ice_1d(ji) + zfcsu(ji)          
(  375)           zfnet(ji) = MAX( zzero , zfnet(ji) )
(  376)           zfnet(ji) = zfnet(ji) * MAX( zzero , SIGN( zone , sist_1d(ji) - ztsmlt(ji) ) )
(  377)        END DO
(  378) 
(  379)        !-------------------------------------------------------------------------
(  380)        !  6. Calculate changes in internal temperature due to vertical diffusion   
(  381)        !     processes. The evolution of this temperature is governed by the one-
(  382)        !     dimensionnal heat-diffusion equation. 
(  383)        !     Given the temperature tbif(1/2/3), at time m we solve a set
(  384)        !     of finite difference equations to obtain new tempe. Each tempe is coupled
(  385)        !     to the temp. immediatly above and below by heat conduction terms. Thus 
(  386)        !     we have a set of equations of the form A * T = B, where A is a tridiagonal
(  387)        !     matrix, T a vector whose components are the unknown new temp.
(  388)        !-------------------------------------------------------------------------
(  389)        
(  390)        !--parameter for the numerical methode use to solve the heat-diffusion equation
(  391)        !- implicit, explicit or Crank-Nicholson
(  392)        zumsb = 1.0 - sbeta  
(  393)        DO ji = kideb, kiut
(  394)           zidsn(ji)   = MAX ( zzero, SIGN( zone, hsndif - h_snow_1d(ji) ) ) 






PGF90 (Version     10.5)          09/23/2010  09:49:57      page 8

(  395)           z1midsn(ji) = 1.0 - zidsn(ji)
(  396)           zihic       = MAX ( zzero, SIGN( zone, hicdif - h_ice_1d(ji) ) ) 
(  397)           zidsnic(ji) = zidsn(ji) *  zihic 
(  398)           zfcsudt(ji) = zfcsu(ji) * rdt_ice 
(  399)        END DO 
(  400)    
(  401)        DO ji = kideb, kiut
(  402) 
(  403)           !     6.1 Calculate intermediate variables.
(  404)           !----------------------------------------
(  405) 
(  406)           !--conductivity at the snow surface
(  407)           zkhsn = 2.0 * zksn(ji) * rdt_ice / rcpsn
(  408)           !--conductivity at the ice surface
(  409)           zkhic = 4.0 * zkic(ji) * rdt_ice / MAX( h_ice_1d(ji) * h_ice_1d(ji) * rcpic , epsi20 )
(  410)           !--conductivity at the snow/ice interface 
(  411)           zkint = 4.0 * zksn(ji) * zkic(ji)  &
(  412)              &        / ( zksn(ji) * h_ice_1d(ji) + 2.0 * zkic(ji) * h_snow_1d(ji) * z1midsn(ji)) 
(  413)           zkhsnint = zkint * rdt_ice / rcpsn
(  414)           zkhicint = zkint * 2.0 * rdt_ice / MAX( h_ice_1d(ji) * rcpic , epsi20 )
(  415)           
(  416)           !     6.2. Fulfill the linear system matrix.
(  417)           !-----------------------------------------
(  418) !$$$          zplediag(1) = 1 + sbeta * z1midsn(ji) * ( zkhsn + zkhsnint )       
(  419)           zplediag(1) =   zidsn(ji) + z1midsn(ji) * h_snow_1d(ji)   &
(  420)              &          + sbeta * z1midsn(ji) * zkhsnint 
(  421)           zplediag(2) = 1 + sbeta * ( z1midsn(ji) * zkhicint + zkhic ) 
(  422)           zplediag(3) = 1 + 3.0 * sbeta * zkhic   
(  423) 
(  424)           zsubdiag(1) =  0.e0              
(  425)           zsubdiag(2) = -1.e0 * z1midsn(ji) * sbeta * zkhicint
(  426)           zsubdiag(3) = -1.e0 * sbeta * zkhic 
(  427) 
(  428)           zsupdiag(1) = -1.e0 * z1midsn(ji) * sbeta * zkhsnint 
(  429)           zsupdiag(2) = zsubdiag(3)
(  430)           zsupdiag(3) =  0.e0
(  431)           
(  432)           !     6.3. Fulfill the idependent term vector.
(  433)           !-------------------------------------------
(  434)           
(  435) !$$$          zsmbr(1) = zidsn(ji) * sist_1d(ji) + z1midsn(ji) *   &
(  436) !$$$             &         ( tbif_1d(ji,1) + zkhsn * sist_1d(ji)
(  437) !$$$             &         - zumsb * ( zkhsn * tbif_1d(ji,1)
(  438) !$$$             &                   + zkhsnint * ( tbif_1d(ji,1) - tbif_1d(ji,2) ) ) )
(  439)           zsmbr(1) = zidsn(ji) * sist_1d(ji) + z1midsn(ji) *    &
(  440)              &       ( h_snow_1d(ji) * tbif_1d(ji,1) - ( zfcsudt(ji) / rcpsn )  &
(  441)              &       - zumsb * zkhsnint * ( tbif_1d(ji,1) - tbif_1d(ji,2) ) )
(  442) 
(  443)           zsmbr(2) =  tbif_1d(ji,2)  &
(  444)              &      - zidsn(ji) * ( 1.0 - zidsnic(ji) ) &
(  445)              &        * ( zfcsudt(ji) / MAX( h_ice_1d(ji) * rcpic , epsi20 ) ) &
(  446)              &      + zumsb * ( zkhicint * ( tbif_1d(ji,1) - tbif_1d(ji,2) ) &
(  447)              &                   - zkhic * ( tbif_1d(ji,2) - tbif_1d(ji,3) )  )
(  448) 
(  449)           zsmbr(3) =  tbif_1d(ji,3)  &
(  450)              &      + zkhic * ( 2.0 * tfu_1d(ji) &
(  451)              &                + zumsb * ( tbif_1d(ji,2) - 3.0 * tbif_1d(ji,3) ) )
(  452)           






PGF90 (Version     10.5)          09/23/2010  09:49:57      page 9

(  453)           !     6.4. Solve the system (Gauss elimination method).
(  454)           !----------------------------------------------------
(  455)           
(  456)           zpiv1 = zsubdiag(2) / zplediag(1) 
(  457)           zb2   = zplediag(2) - zpiv1 * zsupdiag(1)
(  458)           zd2   = zsmbr(2) - zpiv1 * zsmbr(1)
(  459) 
(  460)           zpiv2 = zsubdiag(3) / zb2
(  461)           zb3   = zplediag(3) - zpiv2 * zsupdiag(2)
(  462)           zd3   = zsmbr(3) - zpiv2 * zd2
(  463) 
(  464)           tbif_1d(ji,3) = zd3 / zb3
(  465)           tbif_1d(ji,2) = ( zd2 - zsupdiag(2) * tbif_1d(ji,3) ) / zb2
(  466)           tbif_1d(ji,1) = ( zsmbr(1) - zsupdiag(1) * tbif_1d(ji,2) ) / zplediag(1)            
(  467) 
(  468)           !--- taking into account the particular case of  zidsnic(ji) = 1
(  469)           ztint =  (  zkic(ji) * h_snow_1d(ji) * tfu_1d (ji)    &
(  470)              &      + zksn(ji) * h_ice_1d(ji) * sist_1d(ji) )   &
(  471)              &   / ( zkic(ji) * h_snow_1d(ji) + zksn(ji) * h_ice_1d(ji) ) 
(  472) 
(  473)           tbif_1d(ji,1) = ( 1.0 - zidsnic(ji) ) * tbif_1d(ji,1)   &
(  474)              &                + zidsnic(ji)   * ( ztint + sist_1d(ji) ) / 2.0
(  475)           tbif_1d(ji,2) = ( 1.0 - zidsnic(ji) ) * tbif_1d(ji,2)   &
(  476)              &                + zidsnic(ji)   * ( 3.0 * ztint + tfu_1d(ji) ) / 4.0
(  477)           tbif_1d(ji,3) = ( 1.0 - zidsnic(ji) ) * tbif_1d(ji,3)   &
(  478)              &                + zidsnic(ji)   * ( ztint + 3.0 * tfu_1d(ji) ) / 4.0     