


PGF90 (Version     10.5)          09/23/2010  09:49:42      page 1

Switches: -noasm -nodclchk -nodebug -nodlines -noline -list
          -idir /usr/local/include
          -idir ../../../lib
          -idir ../../../lib/oce
          -idir /usr/local/include
          -idir /usr/include/mpich2-x86_64
          -idir /usr/include/mpich2-x86_64
          -inform severe -opt 3 -nosave -object -noonetrip
          -depchk on -nostandard     
          -nosymbol -noupcase    

Filename: solmat.F90

(    1) MODULE solmat
(    2)    !!======================================================================
(    3)    !!                       ***  MODULE  solmat  ***
(    4)    !! solver       : construction of the matrix 
(    5)    !!======================================================================
(    6) 
(    7)    !!----------------------------------------------------------------------
(    8)    !!   sol_mat       : Construction of the matrix of used by the elliptic solvers
(    9)    !!   fetsch        :
(   10)    !!   fetmat        :
(   11)    !!   fetstr        :
(   12)    !!----------------------------------------------------------------------
(   13)    !! * Modules used
(   14)    USE oce             ! ocean dynamics and active tracers
(   15)    USE dom_oce         ! ocean space and time domain
(   16)    USE sol_oce         ! ocean solver
(   17)    USE phycst          ! physical constants
(   18)    USE obc_oce         ! ocean open boundary conditions
(   19)    USE lbclnk          ! lateral boudary conditions
(   20)    USE lib_mpp         ! distributed memory computing
(   21)    USE in_out_manager  ! I/O manager
(   22) 
(   23)    IMPLICIT NONE
(   24)    PRIVATE
(   25) 
(   26)    !! * Routine accessibility
(   27)    PUBLIC sol_mat     ! routine called by inisol.F90
(   28)    !!----------------------------------------------------------------------
(   29)    !!   OPA 9.0 , LOCEAN-IPSL (2005) 
(   30)    !! $Header: /home/opalod/NEMOCVSROOT/NEMO/OPA_SRC/SOL/solmat.F90,v 1.11 2006/03/20 17:27:14 opalod Exp $ 
(   31)    !! This software is governed by the CeCILL licence see modipsl/doc/NEMO_CeCILL.txt 
(   32)    !!----------------------------------------------------------------------
(   33) 
(   34) CONTAINS
(   35) 
(   36)    SUBROUTINE sol_mat( kt )
(   37)       !!----------------------------------------------------------------------
(   38)       !!                  ***  ROUTINE sol_mat  ***
(   39)       !!
(   40)       !! ** Purpose :   Construction of the matrix of used by the elliptic 
(   41)       !!      solvers (either sor, pcg or feti methods).
(   42)       !!
(   43)       !! ** Method  :   The matrix depends on the type of free surface:
(   44)       !!       * lk_dynspg_rl=T: rigid lid formulation
(   45)       !!      The matrix is built for the barotropic stream function system.
(   46)       !!      a diagonal preconditioning matrix is also defined.






PGF90 (Version     10.5)          09/23/2010  09:49:42      page 2

(   47)       !!       * lk_dynspg_flt=T: free surface formulation
(   48)       !!      The matrix is built for the divergence of the transport system
(   49)       !!      a diagonal preconditioning matrix is also defined.
(   50)       !!        Note that for feti solver (nsolv=3) a specific initialization 
(   51)       !!      is required (call to fetstr.F) for memory allocation and inter-
(   52)       !!      face definition.
(   53)       !! 
(   54)       !! ** Action  : - gcp    : extra-diagonal elements of the matrix
(   55)       !!              - gcdmat : preconditioning matrix (diagonal elements)
(   56)       !!              - gcdprc : inverse of the preconditioning matrix
(   57)       !!
(   58)       !! History :
(   59)       !!   1.0  !  88-04  (G. Madec)  Original code
(   60)       !!        !  91-11  (G. Madec)
(   61)       !!        !  93-03  (M. Guyon)  symetrical conditions
(   62)       !!        !  93-06  (M. Guyon)  suppress pointers
(   63)       !!        !  96-05  (G. Madec)  merge sor and pcg formulations
(   64)       !!        !  96-11  (A. Weaver)  correction to preconditioning
(   65)       !!        !  98-02  (M. Guyon)  FETI method
(   66)       !!   8.5  !  02-08  (G. Madec)  F90: Free form
(   67)       !!        !  02-11  (C. Talandier, A-M. Treguier) Free surface & Open boundaries
(   68)       !!   9.0  !  05-11  (V. Garnier) Surface pressure gradient organization
(   69)       !!----------------------------------------------------------------------
(   70)       !! * Arguments
(   71)       INTEGER, INTENT(in) :: kt
(   72) 
(   73)       !! * Local declarations
(   74)       INTEGER ::   ji, jj                    ! dummy loop indices
(   75)       INTEGER ::   ii, ij, iiend, ijend      ! temporary integers
(   76)       REAL(wp) ::   zcoefs, zcoefw, zcoefe, zcoefn  ! temporary scalars
(   77)       REAL(wp) ::   z2dt, zcoef
(   78)       !!----------------------------------------------------------------------
(   79) 
(   80)       ! FETI method ( nsolv = 3)
(   81)       ! memory allocation and interface definition for the solver
(   82) 
(   83)       IF( nsolv == 3 )   CALL fetstr
(   84) 
(   85)       
(   86)       ! 1. Construction of the matrix
(   87)       ! -----------------------------
(   88)       
(   89)       ! initialize to zero
(   90)       zcoef = 0.e0
(   91)       gcp(:,:,1) = 0.e0
(   92)       gcp(:,:,2) = 0.e0
(   93)       gcp(:,:,3) = 0.e0
(   94)       gcp(:,:,4) = 0.e0
(   95)       
(   96)       gcdprc(:,:) = 0.e0
(   97)       gcdmat(:,:) = 0.e0
(   98)       
(   99)       IF( neuler == 0 .AND. kt == nit000 ) THEN
(  100)          z2dt = rdt
(  101)       ELSE
(  102)          z2dt = 2. * rdt
(  103)       ENDIF
(  104) 






PGF90 (Version     10.5)          09/23/2010  09:49:42      page 3

(  105) #if defined key_dynspg_flt && ! defined key_obc
(  106) !!cr      IF( lk_dynspg_flt .AND. .NOT.lk_obc ) THEN   !bug missing lk_dynspg_flt_atsk
(  107) 
(  108)       ! defined the coefficients for free surface elliptic system
(  109) 
(  110)       DO jj = 2, jpjm1
(  111)          DO ji = 2, jpim1
(  112)             zcoef = z2dt * z2dt * grav * rnu * bmask(ji,jj)
(  113)             zcoefs = -zcoef * hv(ji  ,jj-1) * e1v(ji  ,jj-1) / e2v(ji  ,jj-1)    ! south coefficient
(  114)             zcoefw = -zcoef * hu(ji-1,jj  ) * e2u(ji-1,jj  ) / e1u(ji-1,jj  )    ! west coefficient
(  115)             zcoefe = -zcoef * hu(ji  ,jj  ) * e2u(ji  ,jj  ) / e1u(ji  ,jj  )    ! east coefficient
(  116)             zcoefn = -zcoef * hv(ji  ,jj  ) * e1v(ji  ,jj  ) / e2v(ji  ,jj  )    ! north coefficient
(  117)             gcp(ji,jj,1) = zcoefs
(  118)             gcp(ji,jj,2) = zcoefw
(  119)             gcp(ji,jj,3) = zcoefe
(  120)             gcp(ji,jj,4) = zcoefn
(  121)             gcdmat(ji,jj) = e1t(ji,jj) * e2t(ji,jj) * bmask(ji,jj)    &          ! diagonal coefficient
(  122)                &          - zcoefs -zcoefw -zcoefe -zcoefn
(  123)          END DO
(  124)       END DO
(  125)       
(  126) #  elif defined key_dynspg_flt && defined key_obc
(  127) !!cr      ELSEIF( lk_dynspg_flt .AND. lk_obc ) THEN     !bug missing lk_dynspg_flt_atsk 
(  128) 
(  129)       !   defined gcdmat in the case of open boundaries
(  130) 
(  131)       DO jj = 2, jpjm1
(  132)          DO ji = 2, jpim1
(  133)             zcoef = z2dt * z2dt * grav * rnu * bmask(ji,jj)
(  134)             !  south coefficient
(  135)             IF( lp_obc_south .AND. ( jj == njs0p1 ) ) THEN
(  136)                zcoefs = -zcoef * hv(ji,jj-1) * e1v(ji,jj-1)/e2v(ji,jj-1)*(1.-vsmsk(ji,1))
(  137)             ELSE
(  138)                zcoefs = -zcoef * hv(ji,jj-1) * e1v(ji,jj-1)/e2v(ji,jj-1)
(  139)             END IF
(  140)             gcp(ji,jj,1) = zcoefs
(  141) 
(  142)             !  west coefficient
(  143)             IF( lp_obc_west  .AND. ( ji == niw0p1 ) ) THEN
(  144)                zcoefw = -zcoef * hu(ji-1,jj) * e2u(ji-1,jj)/e1u(ji-1,jj)*(1.-uwmsk(jj,1))
(  145)             ELSE
(  146)                zcoefw = -zcoef * hu(ji-1,jj) * e2u(ji-1,jj)/e1u(ji-1,jj)
(  147)             END IF
(  148)             gcp(ji,jj,2) = zcoefw
(  149) 
(  150)             !   east coefficient
(  151)             IF( lp_obc_east  .AND. ( ji == nie0 ) ) THEN
(  152)                zcoefe = -zcoef * hu(ji,jj) * e2u(ji,jj)/e1u(ji,jj)*(1.-uemsk(jj,1))
(  153)             ELSE
(  154)                zcoefe = -zcoef * hu(ji,jj) * e2u(ji,jj)/e1u(ji,jj)
(  155)             END IF
(  156)             gcp(ji,jj,3) = zcoefe
(  157) 
(  158)             !   north coefficient
(  159)             IF( lp_obc_north .AND. ( jj == njn0 ) ) THEN
(  160)                zcoefn = -zcoef * hv(ji,jj) * e1v(ji,jj)/e2v(ji,jj)*(1.-vnmsk(ji,1))
(  161)             ELSE
(  162)                zcoefn = -zcoef * hv(ji,jj) * e1v(ji,jj)/e2v(ji,jj)






PGF90 (Version     10.5)          09/23/2010  09:49:42      page 4

(  163)             END IF
(  164)             gcp(ji,jj,4) = zcoefn
(  165) 
(  166)             ! diagonal coefficient
(  167)             gcdmat(ji,jj) = e1t(ji,jj)*e2t(ji,jj)*bmask(ji,jj) &
(  168)                             - zcoefs -zcoefw -zcoefe -zcoefn
(  169)          END DO
(  170)       END DO
(  171) 
(  172) #  else
(  173) !!cr      ELSE
(  174) 
(  175)       !   defined the coefficients for bsf elliptic system
(  176)       
(  177)       DO jj = 2, jpjm1
(  178)          DO ji = 2, jpim1
(  179)             zcoefs = -hur(ji  ,jj  ) * e1u(ji  ,jj  ) / e2u(ji  ,jj  ) * bmask(ji,jj)   ! south coefficient
(  180)             zcoefw = -hvr(ji  ,jj  ) * e2v(ji  ,jj  ) / e1v(ji  ,jj  ) * bmask(ji,jj)   ! west coefficient
(  181)             zcoefe = -hvr(ji+1,jj  ) * e2v(ji+1,jj  ) / e1v(ji+1,jj  ) * bmask(ji,jj)   ! east coefficient
(  182)             zcoefn = -hur(ji  ,jj+1) * e1u(ji  ,jj+1) / e2u(ji  ,jj+1) * bmask(ji,jj)   ! north coefficient
(  183)             gcp(ji,jj,1) = zcoefs
(  184)             gcp(ji,jj,2) = zcoefw
(  185)             gcp(ji,jj,3) = zcoefe
(  186)             gcp(ji,jj,4) = zcoefn
(  187)             gcdmat(ji,jj) = -zcoefs -zcoefw -zcoefe -zcoefn                             ! diagonal coefficient
(  188)          END DO
(  189)       END DO
(  190)       
(  191) !!cr  ENDIF
(  192) #endif
(  193) #if defined key_agrif
(  194)        IF (.NOT.AGRIF_ROOT()) THEN
(  195)        
(  196)        IF ( (nbondi == -1)  .OR. (nbondi == 2) ) bmask(2,:)=0.
(  197)        IF ( (nbondi ==  1)  .OR. (nbondi == 2) ) bmask(nlci-1,:)=0.
(  198)        IF ( (nbondj == -1)  .OR. (nbondj == 2) ) bmask(:,2)=0.
(  199)        IF ( (nbondj ==  1)  .OR. (nbondj == 2) ) bmask(:,nlcj-1)=0.
(  200) 
(  201)       DO jj = 2, jpjm1
(  202)          DO ji = 2, jpim1
(  203)             zcoef = z2dt * z2dt * grav * rnu * bmask(ji,jj)
(  204)             !  south coefficient
(  205)             IF( ((nbondj == -1)  .OR. (nbondj == 2)) .AND. ( jj == 3 ) ) THEN
(  206)                zcoefs = -zcoef * hv(ji,jj-1) * e1v(ji,jj-1)/e2v(ji,jj-1)*(1.-vmask(ji,jj-1,1))
(  207)             ELSE
(  208)                zcoefs = -zcoef * hv(ji,jj-1) * e1v(ji,jj-1)/e2v(ji,jj-1)
(  209)             END IF
(  210)             gcp(ji,jj,1) = zcoefs
(  211) 
(  212)             !  west coefficient
(  213) 	    IF( ( (nbondi == -1)  .OR. (nbondi == 2) ) .AND. ( ji == 3 )  ) THEN
(  214)                zcoefw = -zcoef * hu(ji-1,jj) * e2u(ji-1,jj)/e1u(ji-1,jj)*(1.-umask(ji-1,jj,1))
(  215)             ELSE
(  216)                zcoefw = -zcoef * hu(ji-1,jj) * e2u(ji-1,jj)/e1u(ji-1,jj)
(  217)             END IF
(  218)             gcp(ji,jj,2) = zcoefw
(  219) 
(  220)             !   east coefficient






PGF90 (Version     10.5)          09/23/2010  09:49:42      page 5

(  221)             IF( ((nbondi == 1)  .OR. (nbondi == 2)) .AND. ( ji == nlci-2 ) ) THEN
(  222)                zcoefe = -zcoef * hu(ji,jj) * e2u(ji,jj)/e1u(ji,jj)*(1.-umask(ji,jj,1))
(  223)             ELSE
(  224)                zcoefe = -zcoef * hu(ji,jj) * e2u(ji,jj)/e1u(ji,jj)
(  225)             END IF
(  226)             gcp(ji,jj,3) = zcoefe
(  227) 
(  228)             !   north coefficient
(  229)             IF( ((nbondj == 1)  .OR. (nbondj == 2)) .AND. ( jj == nlcj-2 ) ) THEN
(  230)                zcoefn = -zcoef * hv(ji,jj) * e1v(ji,jj)/e2v(ji,jj)*(1.-vmask(ji,jj,1))
(  231)             ELSE
(  232)                zcoefn = -zcoef * hv(ji,jj) * e1v(ji,jj)/e2v(ji,jj)
(  233)             END IF
(  234)             gcp(ji,jj,4) = zcoefn
(  235) 
(  236)             ! diagonal coefficient
(  237)             gcdmat(ji,jj) = e1t(ji,jj)*e2t(ji,jj)*bmask(ji,jj) &
(  238)                             - zcoefs -zcoefw -zcoefe -zcoefn
(  239)          END DO
(  240)       END DO
(  241)       
(  242)        ENDIF
(  243) #endif
(  244) 
(  245)       ! 2. Boundary conditions 
(  246)       ! ----------------------
(  247)       
(  248)       ! Cyclic east-west boundary conditions
(  249)       !     ji=2 is the column east of ji=jpim1 and reciprocally,
(  250)       !     ji=jpim1 is the column west of ji=2
(  251)       !     all the coef are already set to zero as bmask is initialized to
(  252)       !     zero for ji=1 and ji=jpj in dommsk.
(  253)       
(  254)       ! Symetrical conditions
(  255)       ! free surface: no specific action
(  256)       ! bsf system: n-s gradient of bsf = 0 along j=2 (perhaps a bug !!!!!!)
(  257)       ! the diagonal coefficient of the southern grid points must be modify to
(  258)       ! account for the existence of the south symmetric bassin.
(  259)       
(  260) !!cr      IF( .NOT.lk_dynspg_flt ) THEN   !bug missing lk_dynspg_flt_atsk
(  261) #if ! defined key_dynspg_flt
(  262)       IF( nperio == 2 ) THEN
(  263)          DO ji = 1, jpi
(  264)             IF( bmask(ji,2) /= 0.e0 ) THEN
(  265)                zcoefs = - hur(ji,2)*e1u(ji,2)/e2u(ji,2)
(  266)                gcdmat(ji,2) = gcdmat(ji,2) - zcoefs
(  267)             ENDIF
(  268)          END DO
(  269)       ENDIF
(  270) !!cr      ENDIF
(  271) #endif
(  272)       
(  273)       ! North fold boundary condition
(  274)       !     all the coef are already set to zero as bmask is initialized to
(  275)       !     zero on duplicated lignes and portion of lignes
(  276)       
(  277)       ! 3. Preconditioned matrix
(  278)       ! ------------------------






PGF90 (Version     10.5)          09/23/2010  09:49:42      page 6

(  279)       
(  280)       IF( nsolv /= 3 ) THEN
(  281)          
(  282)          ! SOR and PCG solvers
(  283)          DO jj = 1, jpj
(  284)             DO ji = 1, jpi
(  285)                IF( bmask(ji,jj) /= 0.e0 )   gcdprc(ji,jj) = 1.e0 / gcdmat(ji,jj)
(  286)             END DO
(  287)          END DO
(  288)          
(  289)          gcp(:,:,1) = gcp(:,:,1) * gcdprc(:,:)
(  290)          gcp(:,:,2) = gcp(:,:,2) * gcdprc(:,:)
(  291)          gcp(:,:,3) = gcp(:,:,3) * gcdprc(:,:)
(  292)          gcp(:,:,4) = gcp(:,:,4) * gcdprc(:,:)
(  293)          IF( ( nsolv == 2 ) .OR. ( nsolv == 4 ) )  gccd(:,:) = sor * gcp(:,:,2)
(  294) 
(  295)          IF( nsolv == 4 ) THEN
(  296)             CALL lbc_lnk_e( gcp   (:,:,1), c_solver_pt, 1. )   ! lateral boundary conditions
(  297)             CALL lbc_lnk_e( gcp   (:,:,2), c_solver_pt, 1. )   ! lateral boundary conditions
(  298)             CALL lbc_lnk_e( gcp   (:,:,3), c_solver_pt, 1. )   ! lateral boundary conditions
(  299)             CALL lbc_lnk_e( gcp   (:,:,4), c_solver_pt, 1. )   ! lateral boundary conditions
(  300)             CALL lbc_lnk_e( gcdprc(:,:)  , c_solver_pt, 1. )   ! lateral boundary conditions
(  301)             CALL lbc_lnk_e( gcdmat(:,:)  , c_solver_pt, 1. )   ! lateral boundary conditions         
(  302)             IF( npolj /= 0 ) CALL sol_exd( gcp , c_solver_pt ) ! switch northernelements
(  303)          END IF
(  304) 
(  305)       ELSE
(  306)          
(  307)          ! FETI method
(  308)          ! if feti solver : gcdprc is a mask for the non-overlapping
(  309)          !   data structuring
(  310)          
(  311)          DO jj = 1, jpj
(  312)             DO ji = 1, jpi
(  313)                IF( bmask(ji,jj) /= 0.e0 ) THEN
(  314)                   gcdprc(ji,jj) = 1.e0
(  315)                ELSE
(  316)                   gcdprc(ji,jj) = 0.e0
(  317)                ENDIF
(  318)             END DO
(  319)          END DO
(  320)          
(  321)          ! so "common" line & "common" column have to be !=0 except on global
(  322)          !   domain boundaries
(  323)          ! pbs with nbondi if nperio != 2 ?
(  324)          !   ii = nldi-1
(  325)          ! pb with nldi value if jperio==1 : nbondi modifyed at the end
(  326)          !   of inimpp.F => pb
(  327)          ! pb with periodicity conditions : iiend, ijend
(  328)          
(  329)          ijend = nlej
(  330)          iiend = nlei
(  331)          IF( jperio == 1 .OR. jperio == 4 .OR. jperio == 6 )   iiend = nlci - jpreci
(  332)          ii = jpreci
(  333)          
(  334)          ! case number 1
(  335)          
(  336)          IF( nbondi /= -1 .AND. nbondi /= 2 ) THEN






PGF90 (Version     10.5)          09/23/2010  09:49:42      page 7

(  337)             DO jj = 1, ijend
(  338)                IF( fmask(ii,jj,1) == 1. ) gcdprc(ii,jj) = 1.
(  339)             END DO
(  340)          ENDIF
(  341)          
(  342)          ! case number 2
(  343)          
(  344)          IF( nperio == 1 .OR. nperio == 4 .OR. nperio == 6 ) THEN
(  345)             DO jj = 1, ijend
(  346)                IF( fmask(ii,jj,1) == 1. ) gcdprc(ii,jj) = 1.
(  347)             END DO
(  348)          ENDIF
(  349)          
(  350)          !      ij = nldj-1
(  351)          ! pb with nldi value if jperio==1 : nbondi modifyed at the end
(  352)          !   of inimpp.F => pb, here homogeneisation...
(  353)          
(  354)          ij = jprecj
(  355)          IF( nbondj /= -1 .AND. nbondj /= 2 ) THEN
(  356)             DO ji = 1, iiend
(  357)                IF( fmask(ji,ij,1) == 1. ) gcdprc(ji,ij) = 1.
(  358)             END DO
(  359)          ENDIF
(  360)       ENDIF
(  361)       
(  362)       
(  363)       ! 4. Initialization the arrays used in pcg
(  364)       ! ----------------------------------------
(  365)       gcx  (:,:) = 0.e0
(  366)       gcxb (:,:) = 0.e0
(  367)       gcb  (:,:) = 0.e0
(  368)       gcr  (:,:) = 0.e0
(  369)       gcdes(:,:) = 0.e0
(  370)       gccd (:,:) = 0.e0
(  371)       
(  372)       ! FETI method
(  373)       IF( nsolv == 3 ) THEN
(  374)          CALL fetmat       ! Matrix treatment : Neumann condition, inverse computation
(  375)          CALL fetsch       ! data framework for the Schur Dual solver
(  376)       ENDIF
(  377)       
(  378)    END SUBROUTINE sol_mat
(  379) 
(  380) 
(  381)    SUBROUTINE sol_exd( pt3d, cd_type )
(  382)       !!----------------------------------------------------------------------
(  383)       !!                  ***  routine sol_exd  ***
(  384)       !!                  
(  385)       !! ** Purpose :   Reorder gcb coefficient on the extra outer  halo 
(  386)       !!                at north fold in case of T or F pivot
(  387)       !!
(  388)       !! ** Method  :   Perform a circular permutation of the coefficients on 
(  389)       !!                the total area strictly above the pivot point,
(  390)       !!                and on the semi-row of the pivot point   
(  391)       !!                
(  392)       !! History :
(  393)       !!   9.0  !  05-09  (R. Benshila)  original routine
(  394)       !!----------------------------------------------------------------------






PGF90 (Version     10.5)          09/23/2010  09:49:42      page 8

(  395)       !! * Arguments
(  396)       CHARACTER(len=1) , INTENT( in ) ::   &
(  397)          cd_type       ! define the nature of pt2d array grid-points
(  398)          !             !  = T , U , V , F , W 
(  399)          !             !  = S : T-point, north fold treatment
(  400)          !             !  = G : F-point, north fold treatment
(  401)          !             !  = I : sea-ice velocity at F-point with index shift
(  402)       REAL(wp), DIMENSION(1-jpr2di:jpi+jpr2di,1-jpr2dj:jpj+jpr2dj,4), INTENT( inout ) ::   &
(  403)          pt3d          ! 2D array on which the boundary condition is applied
(  404) 
(  405)       !! * Local variables
(  406)       INTEGER  ::   ji, jk      ! dummy loop indices
(  407)       INTEGER  ::   iloc                ! temporary integers
(  408)       REAL(wp), DIMENSION(1-jpr2di:jpi+jpr2di,1-jpr2dj:jpj+jpr2dj,4) ::   &
(  409)          ztab          ! 2D array on which the boundary condition is applied
(  410)       !!----------------------------------------------------------------------
(  411) 
(  412)       ztab = pt3d
(  413) 
(  414)       ! north fold treatment
(  415)       ! -----------------------
(  416)   
(  417)       SELECT CASE ( npolj )
(  418)          
(  419)          CASE ( 3 , 4 )   !  T pivot
(  420)          iloc = jpiglo/2 +1 
(  421)             
(  422)             SELECT CASE ( cd_type )
(  423)   
(  424)             CASE ( 'T', 'S', 'U', 'W' )
(  425)                DO jk =1, 4
(  426)                   DO ji = 1-jpr2di, nlci+jpr2di
(  427)                      pt3d(ji,nlcj:nlcj+jpr2dj,jk) = ztab(ji,nlcj:nlcj+jpr2dj,jk+3-2*MOD(jk+3,4))           
(  428)                   ENDDO
(  429)                ENDDO
(  430) 
(  431)               DO jk =1, 4
(  432)                   DO ji = nlci+jpr2di, 1-jpr2di,  -1
(  433)                      IF( ( ji .LT. mi0(iloc) .AND. mi0(iloc) /= 1 ) &
(  434)                        & .OR. ( mi0(iloc) == jpi+1 ) ) EXIT
(  435)                      pt3d(ji,nlcj-1,jk) = ztab(ji,nlcj-1,jk+3-2*MOD(jk+3,4))
(  436)                   ENDDO
(  437)                ENDDO
(  438) 
(  439)             CASE ( 'F' ,'G' , 'I', 'V' )
(  440)                DO jk =1, 4
(  441)                   DO ji = 1-jpr2di, nlci+jpr2di
(  442)                      pt3d(ji,nlcj-1:nlcj+jpr2dj,jk) = ztab(ji,nlcj-1:nlcj+jpr2dj,jk+3-2*MOD(jk+3,4))           
(  443)                   ENDDO
(  444)                ENDDO
(  445) 
(  446)             END SELECT   ! cd_type
(  447)   
(  448)          CASE ( 5 , 6 )                 ! F pivot
(  449)           iloc=jpiglo/2
(  450) 
(  451)             SELECT CASE (cd_type )
(  452) 






PGF90 (Version     10.5)          09/23/2010  09:49:42      page 9

(  453)             CASE ( 'T'  ,'S', 'U', 'W')
(  454)                DO jk =1, 4
(  455)                   DO ji = 1-jpr2di, nlci+jpr2di
(  456)                      pt3d(ji,nlcj:nlcj+jpr2dj,jk) = ztab(ji,nlcj:nlcj+jpr2dj,jk+3-2*MOD(jk+3,4))           
(  457)                   ENDDO
(  458)                ENDDO
(  459) 
(  460)             CASE ( 'F' ,'G' , 'I', 'V' )
(  461)                DO jk =1, 4
(  462)                   DO ji = 1-jpr2di, nlci+jpr2di
(  463)                      pt3d(ji,nlcj:nlcj+jpr2dj,jk) = ztab(ji,nlcj:nlcj+jpr2dj,jk+3-2*MOD(jk+3,4))           
(  464)                   ENDDO
(  465)                ENDDO
(  466)                DO jk =1, 4
(  467)                   DO ji = nlci+jpr2di, 1-jpr2di,  -1
(  468)                     IF ( ( ji .LT. mi0(iloc) .AND. mi0(iloc) /= 1 ) &
(  469)                        & .OR. ( mi0(iloc) == jpi+1 ) ) EXIT
(  470)                     pt3d(ji,nlcj-1,jk) = ztab(ji,nlcj-1,jk+3-2*MOD(jk+3,4))
(  471)                   ENDDO
(  472)                ENDDO
(  473) 
(  474)             END SELECT   ! cd_type
(  475) 
(  476)          END SELECT   ! npolj
(  477)   
(  478)    END SUBROUTINE sol_exd
(  479) 
(  480) #if defined key_feti
(  481) 
(  482)    SUBROUTINE fetstr
(  483)       !!---------------------------------------------------------------------
(  484)       !!                  ***  ROUTINE fetstr  ***
(  485)       !!               
(  486)       !! ** Purpose :   Construction of the matrix of the barotropic stream 
(  487)       !!      function system.
(  488)       !!      Finite Elements Tearing & Interconnecting (FETI) approach
(  489)       !!      Memory allocation and interface definition for the solver
(  490)       !!
(  491)       !! ** Method :
(  492)       !!
(  493)       !! References :
(  494)       !!      Guyon, M, Roux, F-X, Chartier, M and Fraunie, P, 1994 :
(  495)       !!      A domain decomposition solver to compute the barotropic 
(  496)       !!      component of an OGCM in the parallel processing field.
(  497)       !!      Ocean Modelling, issue 105, december 94.
(  498)       !!
(  499)       !! History :
(  500)       !!        !  98-02 (M. Guyon)  Original code
(  501)       !!   8.5  !  02-09  (G. Madec)  F90: Free form and module
(  502)       !!----------------------------------------------------------------------
(  503)       !! * Modules used
(  504)       USE lib_feti            ! feti librairy
(  505)       !! * Local declarations
(  506)       INTEGER ::   iiend, ijend, iperio   ! temporary integers
(  507)       !!---------------------------------------------------------------------
(  508)       
(  509)       
(  510)       ! Preconditioning technics of the Dual Schur Operator






PGF90 (Version     10.5)          09/23/2010  09:49:42      page 10

(  511)       ! <= definition of the Coarse Grid solver
(  512)       ! <= dimension of the nullspace of the local operators
(  513)       ! <= Neumann boundaries conditions
(  514)       
(  515)       ! 0. Initializations
(  516)       ! ------------------
(  517)       
(  518)       ndkerep = 1
(  519) 
(  520)       ! initialization of the superstructures management
(  521) 
(  522)       malxm = 1
(  523)       malim = 1
(  524) 
(  525)       ! memory space for the pcpg associated with the FETI dual formulation
(  526)       ! ndkerep is associated to the list of rigid modes, 
(  527)       ! ndkerep == 1 because the Dual Operator
(  528)       ! is a first order operator due to SPG elliptic Operator is a
(  529)       ! second order operator
(  530) 
(  531)       nim = 50
(  532)       nim = nim + ndkerep
(  533)       nim = nim + 2*jpi + 2*jpj
(  534)       nim = nim + jpi*jpj
(  535) 
(  536)       nxm = 33
(  537)       nxm = nxm + 4*jpnij
(  538)       nxm = nxm + 19*(jpi+jpj)
(  539)       nxm = nxm + 13*jpi*jpj
(  540)       nxm = nxm + jpi*jpi*jpj
(  541) 
(  542)       ! krylov space memory
(  543) 
(  544)       iperio = 0
(  545)       IF( jperio == 1 .OR. jperio == 4 .OR. jperio == 6) iperio = 1
(  546)       nxm = nxm + 3*(jpnij-jpni)*jpi
(  547)       nxm = nxm + 3*(jpnij-jpnj+iperio)*jpj
(  548)       nxm = nxm + 2*(jpi+jpj)*(jpnij-jpni)*jpi
(  549)       nxm = nxm + 2*(jpi+jpj)*(jpnij-jpnj+iperio)*jpj
(  550) 
(  551)       ! Resolution with the Schur dual Method ( frontal and local solver by
(  552)       ! blocks
(  553)       ! Case with a local symetrical matrix
(  554)       ! The local matrix is stored in a multi-column form
(  555)       ! The total number of nodes for this subdomain is named "noeuds"
(  556) 
(  557)       noeuds = jpi*jpj
(  558)       nifmat = jpi-1
(  559)       njfmat = jpj-1
(  560)       nelem = nifmat*njfmat
(  561)       npe = 4
(  562)       nmorse = 5*noeuds
(  563)       
(  564)       ! 1. mesh building
(  565)       ! ----------------
(  566)       
(  567)       ! definition of specific information for a subdomain
(  568)       !  narea           : subdomain number = processor number +1 






PGF90 (Version     10.5)          09/23/2010  09:49:42      page 11

(  569)       !  ninterf         : neighbour subdomain number
(  570)       !  nni             : interface point number
(  571)       !  ndvois array    : neighbour subdomain list 
(  572)       !  maplistin array : node pointer at each interface
(  573)       !  maplistin array : concatened list of interface nodes
(  574)       
(  575)       !  messag coding is necessary by interface type for avoid collision
(  576)       !  if nperio == 1 
(  577)       
(  578)       !  lint  array     : indoor interface list / type
(  579)       !  lext  array     : outdoor interface list / type
(  580)       
(  581)       !  domain with jpniXjpnj subdomains
(  582)       
(  583)       CALL feti_inisub(nifmat,njfmat,nbondi,nbondj,nperio,   &
(  584)           nbsw,nbnw,nbse,nbne,ninterf,ninterfc,nni,nnic)
(  585) 
(  586)       CALL feti_creadr(malim,malimax,nim,3*ninterf ,mandvois ,'ndvois' )
(  587)       CALL feti_creadr(malim,malimax,nim,3*ninterfc,mandvoisc,'ndvoisc')
(  588)       CALL feti_creadr(malim,malimax,nim,ninterfc+1,maplistin,'plistin')
(  589)       CALL feti_creadr(malim,malimax,nim,nnic      ,malistin ,'listin' )
(  590) 
(  591)       ! pb with periodicity conditions : iiend, ijend
(  592) 
(  593)       ijend = nlej
(  594)       iiend = nlei
(  595)       IF (jperio == 1) iiend = nlci - jpreci
(  596) 
(  597)       CALL feti_subound(nifmat,njfmat,nldi,iiend,nldj,ijend,   &
(  598)           narea,nbondi,nbondj,nperio,   &
(  599)           ninterf,ninterfc,   &
(  600)           nowe,noea,noso,nono,   &
(  601)           nbsw,nbnw,nbse,nbne,   &
(  602)           npsw,npnw,npse,npne,   &
(  603)           mfet(mandvois),mfet(mandvoisc),   &
(  604)           mfet(maplistin),nnic,mfet(malistin) )
(  605) 
(  606)    END SUBROUTINE fetstr
(  607) 
(  608) 
(  609)    SUBROUTINE fetmat
(  610)       !!---------------------------------------------------------------------
(  611)       !!                   ***  ROUTINE fetmat  ***
(  612)       !!            
(  613)       !! ** Purpose :   Construction of the matrix of the barotropic stream 
(  614)       !!      function system.
(  615)       !!      Finite Elements Tearing & Interconnecting (FETI) approach
(  616)       !!      Matrix treatment : Neumann condition, inverse computation
(  617)       !!
(  618)       !! ** Method :
(  619)       !!
(  620)       !! References :